                                  USG-TRANSPORT USG-TRANSPORT 
       FURTHER  DEVELOPMENTS BASED ON MODFLOW-USG
                       VERSION USG-TRANSPORT VERSION 1.5.0

 LIST FILE: test1.lst
                         UNIT    7

 OPENING test1.bas
 FILE TYPE:BAS6   UNIT    1   STATUS:OLD    
 FORMAT:FORMATTED              ACCESS:SEQUENTIAL          

 OPENING test1.sms
 FILE TYPE:SMS   UNIT   19   STATUS:OLD    
 FORMAT:FORMATTED              ACCESS:SEQUENTIAL          

 OPENING test1.dis
 FILE TYPE:DISU   UNIT   29   STATUS:OLD    
 FORMAT:FORMATTED              ACCESS:SEQUENTIAL          

 OPENING test1.oc
 FILE TYPE:OC   UNIT   22   STATUS:OLD    
 FORMAT:FORMATTED              ACCESS:SEQUENTIAL          

 OPENING test1.wel
 FILE TYPE:WEL   UNIT   12   STATUS:OLD    
 FORMAT:FORMATTED              ACCESS:SEQUENTIAL          

 OPENING test1.lpf
 FILE TYPE:LPF   UNIT   11   STATUS:OLD    
 FORMAT:FORMATTED              ACCESS:SEQUENTIAL          

 OPENING test1.cln
 FILE TYPE:CLN   UNIT  119   STATUS:OLD    
 FORMAT:FORMATTED              ACCESS:SEQUENTIAL          

 OPENING test1_cln.hds
 FILE TYPE:DATA(BINARY)   UNIT   77   STATUS:UNKNOWN
 FORMAT:BINARY                 ACCESS:SEQUENTIAL          

 OPENING test1_cln.con
 FILE TYPE:DATA(BINARY)   UNIT  188   STATUS:UNKNOWN
 FORMAT:BINARY                 ACCESS:SEQUENTIAL          

 OPENING test1.cbcln
 FILE TYPE:DATA(BINARY)   UNIT  144   STATUS:UNKNOWN
 FORMAT:BINARY                 ACCESS:SEQUENTIAL          

 OPENING test1_FlowReduction.dat
 FILE TYPE:DATA   UNIT  166   STATUS:UNKNOWN
 FORMAT:FORMATTED              ACCESS:SEQUENTIAL          

 OPENING test1.bct
 FILE TYPE:BCT   UNIT  120   STATUS:OLD    
 FORMAT:FORMATTED              ACCESS:SEQUENTIAL          

 OPENING test1.ccb
 FILE TYPE:DATA(BINARY)   UNIT  145   STATUS:UNKNOWN
 FORMAT:BINARY                 ACCESS:SEQUENTIAL          

 OPENING test1.con
 FILE TYPE:DATA(BINARY)   UNIT  132   STATUS:UNKNOWN
 FORMAT:BINARY                 ACCESS:SEQUENTIAL          

 OPENING test1.cbb
 FILE TYPE:DATA(BINARY)   UNIT   50   STATUS:UNKNOWN
 FORMAT:BINARY                 ACCESS:SEQUENTIAL          

 OPENING test1.hds
 FILE TYPE:DATA(BINARY)   UNIT   30   STATUS:UNKNOWN
 FORMAT:BINARY                 ACCESS:SEQUENTIAL          

 OPENING test1.ddn
 FILE TYPE:DATA(BINARY)   UNIT   31   STATUS:UNKNOWN
 FORMAT:BINARY                 ACCESS:SEQUENTIAL          

 BAS -- BASIC PACKAGEUSG-TRANSPORT USG-TRANSPORT VERSION 1.5.0              INPUT READ FROM UNIT    1
 
 # MODFLOW-USGs Basic Package                                                    
 # MODFLOW Data Set Created by Groundwater Vistas                                
 #
 THE FREE FORMAT OPTION HAS BEEN SELECTED
 THE UNSTRUCTURED GRID OPTION HAS BEEN SELECTED

 DIS -- UNSTRUCTURED GRID DISCRETIZATION PACKAGE, VERSION 1 : 5/17/2010 - INPUT READ FROM UNIT   29
       1200 NODES         3 NLAY      7360 NJAG  VERT. SUBDISCRETIZATION INDEX, IVSD = -1
 INDEX FOR INPUT OF UNSTRUCTURED, FINITE-VOLUME CONNECTIVITY INFORMATION, IDSYMRD =   0
   20 STRESS PERIOD(S) IN SIMULATION
 MODEL TIME UNIT IS DAYS
 MODEL LENGTH UNIT IS UNDEFINED
  Confining bed flag for each layer:
   0   0   0

 CLN -- CONNECTED LINE NETWORK DISCRETIZATION PROCESS, VERSION 1, 3/3/2012 INPUT READ FROM UNIT  119
 FLAG (0) OR MAXIMUM NUMBER OF LINEAR NODES (NCLN) =      1
 FLAG (-VE) OR NUMBER OF LINEAR NODES (+VE) (ICLNNDS) =     -3
 NUMBER OF LINEAR NODE TO MATRIX GRID CONNECTIONS (NCLNGWC) =      3

 CELL-BY-CELL FLOWS WILL BE SAVED ON UNIT   144(FLAG ICLNCB IS GREATER THAN ZERO)
 CLN HEAD OUTPUT WILL BE SAVED ON UNIT   77(FLAG ICLNHD IS GREATER THAN ZERO)
 CLN DDN OUTPUT WILL NOT BE SAVED OR PRINTED (FLAG ICLNDD IS EQUAL TO ZERO)
 CLN IBOUND OUTPUT WILL NOT BE SAVED OR PRINTED (FLAG ICLNIB IS EQUAL TO ZERO)
 NUMBER OF RECTANGULAR SECTION GEOMETRIES =          0
 CLN CONC OUTPUT WILL BE SAVED ON UNIT  188(FLAG ICLNCN IS GREATER THAN ZERO)



              NODES PER CLN SEGMENT
 READING ON UNIT  119 WITH FORMAT: (FREE)              
         3

                     CONNECTED LINE NETWORK INFORMATION
                    ----------------------------------------
     CLN-NODE NO. CLNTYP ORIENTATION  CLN LENGTH    BOT ELEVATION         FANGLE         IFLIN           ICCWADI
     -----------  ------ ----------- -----------    -------------    -----------        ------    -------
              1      1          0    0.200000E+02    0.200000E+02    0.000000E+00         -1          0
              2      1          0    0.100000E+01    0.190000E+02    0.000000E+00         -1          0
              3      1          0    0.190000E+02    0.000000E+00    0.000000E+00         -1          0

                     CLN TO 3-D GRID CONNECTION INFORMATION
                    ----------------------------------------
     F-NODE NO. GW-NODE NO  EQTN. TYPE        FSKIN           FLENG         FANISO   ICGWADI
     ---------- ---------- -----------     ----------- ----------------- ---------------   ----------
              1        190           0    0.000000E+00    0.200000E+02    0.100000E+01         0
              2        590           0    0.000000E+00    0.100000E+01    0.100000E+01         0
              3        990           0    0.000000E+00    0.190000E+02    0.100000E+01         0

                     CONDUIT NODE INFORMATION
                    ----------------------------------------
     CONDUIT NODE        RADIUS   CONDUIT SAT K
     ------------        ------   -------------
              1    0.150000E+00    0.323000E+11
 

 DIS -- UNSTRUCTURED GRID DISCRETIZATION PACKAGE, VERSION 1 : 5/17/2010 - INPUT READ FROM UNIT   29

   NO. OF NODES PER LAYER =       400



                                TOP FOR LAYER   1
 READING ON UNIT   29 WITH FORMAT: (FREE)              



                                TOP FOR LAYER   2
 READING ON UNIT   29 WITH FORMAT: (FREE)              



                                TOP FOR LAYER   3
 READING ON UNIT   29 WITH FORMAT: (FREE)              



                                BOT FOR LAYER   1
 READING ON UNIT   29 WITH FORMAT: (FREE)              



                                BOT FOR LAYER   2
 READING ON UNIT   29 WITH FORMAT: (FREE)              

                      BOT =   0.00000     FOR LAYER   3

                     AREA =   100.000     FOR LAYER   1



                                 IA
 READING ON UNIT   29 WITH FORMAT: (FREE)              



                                 JA
 READING ON UNIT   29 WITH FORMAT: (FREE)              



               CONNECTION LENGTH 12 FOR LAYER   1
 READING ON UNIT   29 WITH FORMAT: (FREE)              



                 PERPENDICULAR AREA
 READING ON UNIT   29 WITH FORMAT: (FREE)              


 STRESS PERIOD     LENGTH       TIME STEPS     MULTIPLIER FOR DELT    SS FLAG
 ----------------------------------------------------------------------------
        1         30.00000         10                    1.200         TR
        2         30.00000         10                    1.200         TR
        3         30.00000         10                    1.200         TR
        4         30.00000         10                    1.200         TR
        5         30.00000         10                    1.200         TR
        6         30.00000         10                    1.200         TR
        7         30.00000         10                    1.200         TR
        8         30.00000         10                    1.200         TR
        9         30.00000         10                    1.200         TR
       10         30.00000         10                    1.200         TR
       11         30.00000         10                    1.200         TR
       12         30.00000         10                    1.200         TR
       13         30.00000         10                    1.200         TR
       14         30.00000         10                    1.200         TR
       15         30.00000         10                    1.200         TR
       16         30.00000         10                    1.200         TR
       17         30.00000         10                    1.200         TR
       18         30.00000         10                    1.200         TR
       19         30.00000         10                    1.200         TR
       20         30.00000         10                    1.200         TR

 TRANSIENT SIMULATION




           BOUNDARY ARRAY =         1 FOR LAYER   1

           BOUNDARY ARRAY =         1 FOR LAYER   2



                     BOUNDARY ARRAY FOR LAYER   3
 READING ON UNIT    1 WITH FORMAT: (FREE)              

 AQUIFER HEAD WILL BE SET TO   999.00     AT ALL NO-FLOW NODES (IBOUND=0).

             INITIAL HEAD =   80.0000     FOR LAYER   1

             INITIAL HEAD =   80.0000     FOR LAYER   2

             INITIAL HEAD =   80.0000     FOR LAYER   3

 OUTPUT CONTROL IS SPECIFIED EVERY TIME STEP
 HEAD PRINT FORMAT CODE IS   0    DRAWDOWN PRINT FORMAT CODE IS   0        CONC PRINT FORMAT CODE IS   0
 HEADS WILL BE SAVED ON UNIT   30    DRAWDOWNS WILL BE SAVED ON UNIT   31         CONC WILL BE SAVED ON UNIT  132

 LPF -- LAYER-PROPERTY FLOW PACKAGE, VERSION 7, 5/2/2005
         INPUT READ FROM UNIT   11
 # MODFLOW-USG Layer Property Flow (LPF) Package
 CELL-BY-CELL FLOWS WILL BE SAVED ON UNIT   50
 HEAD AT CELLS THAT CONVERT TO DRY= -1.00000E+30
 No named parameters
 IKCFLAG=0, NODAL INPUT OF HY AND CV
 CONSTANTCV OPTION:
 Constant vertical conductance for convertible layers
 NOVFC OPTION:
 Do not apply the vertical flow correction

   LAYER FLAGS:
 LAYER       LAYTYP        LAYAVG         CHANI        LAYVKA        LAYWET
 ---------------------------------------------------------------------------
    1             4             0     1.000E+00             0             0
    2             4             0     1.000E+00             0             0
    3             4             0     1.000E+00             0             0

   INTERPRETATION OF LAYER FLAGS:
                        INTERBLOCK     HORIZONTAL    DATA IN
         LAYER TYPE   TRANSMISSIVITY   ANISOTROPY   ARRAY VKA   WETTABILITY
 LAYER      (LAYTYP)      (LAYAVG)       (CHANI)      (LAYVKA)      (LAYWET)
 ---------------------------------------------------------------------------
    1     UPSTREAM       HARMONIC     1.000E+00    VERTICAL K  NON-WETTABLE
    2     UPSTREAM       HARMONIC     1.000E+00    VERTICAL K  NON-WETTABLE
    3     UPSTREAM       HARMONIC     1.000E+00    VERTICAL K  NON-WETTABLE

 WETTING CAPABILITY IS NOT ACTIVE IN ANY LAYER



              HYD. COND. ALONG ROWS FOR LAYER   1
 READING ON UNIT   11 WITH FORMAT: (FREE)              



                VERTICAL HYD. COND. FOR LAYER   1
 READING ON UNIT   11 WITH FORMAT: (FREE)              



                   SPECIFIC STORAGE FOR LAYER   1
 READING ON UNIT   11 WITH FORMAT: (FREE)              



                     SPECIFIC YIELD FOR LAYER   1
 READING ON UNIT   11 WITH FORMAT: (FREE)              



              HYD. COND. ALONG ROWS FOR LAYER   2
 READING ON UNIT   11 WITH FORMAT: (FREE)              



                VERTICAL HYD. COND. FOR LAYER   2
 READING ON UNIT   11 WITH FORMAT: (FREE)              



                   SPECIFIC STORAGE FOR LAYER   2
 READING ON UNIT   11 WITH FORMAT: (FREE)              



                     SPECIFIC YIELD FOR LAYER   2
 READING ON UNIT   11 WITH FORMAT: (FREE)              



              HYD. COND. ALONG ROWS FOR LAYER   3
 READING ON UNIT   11 WITH FORMAT: (FREE)              



                VERTICAL HYD. COND. FOR LAYER   3
 READING ON UNIT   11 WITH FORMAT: (FREE)              



                   SPECIFIC STORAGE FOR LAYER   3
 READING ON UNIT   11 WITH FORMAT: (FREE)              



                     SPECIFIC YIELD FOR LAYER   3
 READING ON UNIT   11 WITH FORMAT: (FREE)              

 CLN -- CONDUIT DOMAIN FLOW PACKAGE, VERSION 1, 5/17/2010 INPUT READ FROM UNIT  119

  CONDUIT BOUNDARY ARRAY  =         1



              CONDUIT INITIAL HEAD 
 READING ON UNIT  119 WITH FORMAT: (FREE)              

 BCT -- BLOCK-CENTERED TRANSPORT PACKAGE, VER. 8, 9/12/2009
         INPUT READ FROM UNIT120
 # MODFLOW-USG Block-Centered Transport (BCT) Package
 TRANSPORT FLAG (ITRNSP)                             =  1
 C-B-C FLUX FLAG OR UNIT NUMBER (IBCTCB)             =145
 NUMBER OF MOBILE COMPONENTS (MCOMP)                 =  1
 ACTIVE DOMAIN SAME AS FOR FLOW FLAG (IC_IBOUND_FLG) =  1
 TVD SCHEME FLAG AND FCT COUNT (ITVD)                =  0
 ADSORPTION FLAG (IADSORB)                           =  1
 FLAG TO SOLVE FOR TOTAL CONCENTRATION (ICT)         =  0
 CONCENTRATION AT INACTIVE CELLS (CINACT)            =  -1.0000    
 SOLVER TOLERANCE FOR TRANSPORT (CICLOSE)            =  0.10000E-05
 DISPERSION FLAG (IDISP)                             =  1
 CROSS-DISPERSION FLAG (IXDISP)                      =  0
 DIFFUSION COEFFICIENT (DIFFNC)                      =   0.0000    
 ZERO-ORDER DECAY FLAG (IZOD)                        =  0
 FIRST-ORDER DECAY FLAG (IFOD)                       =  0
 FLOW ERROR CORRECTION FLAG OR UNIT NUMBER (IFMBC)   =  0
 INDEX FOR SIMULATION OF HEAT TRANSPORT (IHEAT)      =  0
  NUMBER OF IMMOBILE COMPONENTS  (IMCOMP)             =  0
 INDEX FOR CLN-GW DISPERSION EQUATION (IDISPCLN)     =  0
 NUMBER OF SEQUENTIAL ITERATIONS (NSEQITR)           =  1
  TRANSPORT SIMULATION FOLLOWS FLOW (ITRNSP)         =  1

                 POROSITY =  0.100000     FOR LAYER   1

                 POROSITY =  0.100000     FOR LAYER   2



                           POROSITY FOR LAYER   3
 READING ON UNIT  120 WITH FORMAT: (FREE)              



                       BULK DENSITY FOR LAYER   1
 READING ON UNIT  120 WITH FORMAT: (FREE)              



                       BULK DENSITY FOR LAYER   2
 READING ON UNIT  120 WITH FORMAT: (FREE)              



                       BULK DENSITY FOR LAYER   3
 READING ON UNIT  120 WITH FORMAT: (FREE)              



                         FACE ANGLE
 READING ON UNIT  120 WITH FORMAT: (FREE)              



                  LONG DISPERSIVITY FOR LAYER   1
 READING ON UNIT  120 WITH FORMAT: (FREE)              



                  LONG DISPERSIVITY FOR LAYER   2
 READING ON UNIT  120 WITH FORMAT: (FREE)              

        LONG DISPERSIVITY =   0.00000     FOR LAYER   3

        TRNS DISPERSIVITY =   0.00000     FOR LAYER   1

        TRNS DISPERSIVITY =   0.00000     FOR LAYER   2

        TRNS DISPERSIVITY =   0.00000     FOR LAYER   3
--------------------------------------------------------------------------------
 THE FOLLOWING ARRAYS ARE READ FOR COMPONENT NUMBER   1

   ADSORPTION COEFFICIENT =   0.00000     FOR LAYER   1

   ADSORPTION COEFFICIENT =   0.00000     FOR LAYER   2

   ADSORPTION COEFFICIENT =   0.00000     FOR LAYER   3



                      CONCENTRATION FOR LAYER   1
 READING ON UNIT  120 WITH FORMAT: (FREE)              



                      CONCENTRATION FOR LAYER   2
 READING ON UNIT  120 WITH FORMAT: (FREE)              



                      CONCENTRATION FOR LAYER   3
 READING ON UNIT  120 WITH FORMAT: (FREE)              

 -------------------------------------------------------------------------------------
 READ TRANSPORT PARAMETERS AND INITIAL CONDITIONS FOR CLN NODES
 -------------------------------------------------------------------------------------

 DISP COEF ALONG CLN TUBE =   0.00000    

 DISP COEF FOR CLN-MATRIX =   0.00000    
--------------------------------------------------------------------------------
 THE FOLLOWING ARRAYS ARE READ FOR COMPONENT NUMBER   1



                INITIAL CONC IN CLN
 READING ON UNIT  119 WITH FORMAT: (FREE)              

 WEL -- WELL PACKAGE, VERSION 7, 5/2/2005 INPUT READ FROM UNIT   12
 No named parameters
 MAXIMUM OF      1 ACTIVE WELLS AT ONE TIME
 CELL-BY-CELL FLOWS WILL BE SAVED ON UNIT   50
 MAXIMUM NUMBER OF ACTIVE WELLS (MXACTW) =      1
 C-B-C FLUX FLAG OR UNIT NUMBER (IWELCB) =  50
 WELL FLUX WILL BE REDUCED WHEN SATURATED THICKNESS IS LESS THAN 1 PERCENT OF CELL THICKNESS
 WELL REDUCTION INFO WILL BE WRITTEN TO UNIT:   166
 AUXILIARY WELL VARIABLE: C01             


     0 Well parameters

 SMS -- SPARSE MATRIX SOLVER PACKAGE, VERSION 7, 5/2/2005
         INPUT READ FROM UNIT 19
 No named parameters
  ALL SOLVER INPUT DATA WILL BE READ FROM THE SOLVER INPUT FILE. 
 OUTER ITERATION CONVERGENCE CRITERION (HCLOSE) =    0.100000E-02
 INNER ITERATION CONVERGENCE CRITERION (HICLOSE) =    0.100000E-04
 MAXIMUM NUMBER OF OUTER ITERATIONS (MXITER)     =       250
 MAXIMUM NUMBER OF INNER ITERATIONS (ITER1)      =       600
 SOLVER PRINTOUT INDEX             (IPRSMS)      =         1
 NONLINEAR ITERATION METHOD    (NONLINMETH)      =         1
 LINEAR SOLUTION METHOD           (LINMETH)      =         1
 D-B-D WEIGHT REDUCTION FACTOR      (THETA)      =    0.700000E+00
 D-B-D WEIGHT INCREASE INCREMENT    (KAPPA)      =    0.700000E-01
 D-B-D PREVIOUS HISTORY FACTOR      (GAMMA)      =    0.100000E+00
 MOMENTUM TERM                  (AMOMENTUM)      =    0.000000E+00
 MAXIMUM NUMBER OF BACKTRACKS    (NUMTRACK)      =       200
 BACKTRACKING TOLERANCE FACTOR       (BTOL)      =    0.110000E+01
 BACKTRACKING REDUCTION FACTOR     (BREDUC)      =    0.200000E+00
 BACKTRACKING REIDUAL LIMIT       (RES_LIM)      =    0.100000E+01
 ***Newton Linearization will be used***
 
 ***XMD linear solver will be used***
 XMD -- LINEAR SOLUTION BY XMD PACKAGE VERSION 1.30
     BY MOTOMU IBARAKI, OHIO STATE UNIVERSITY, COLOMBUS, OH
                 INPUT READ FROM UNIT 19
 ACCELERATION METHOD                    (IACL) =         1
 EQUATION ORDERING FLAG               (NORDER) =         0
 LEVEL OF FILL                         (LEVEL) =         7
 MAXIMUM NUMBER OF ORTHOGONALIZATIONS  (NORTH) =        14
 INDEX FOR USING REDUCED SYSTEM      (IREDSYS) =         0
 RESID. REDUCTION CONVERGE CRITERION  (RRCTOL) =  0.000000E+00
 INDEX FOR USING DROP TOLERANCE     (IDROPTOL) =         1
 DROP TOLERANCE VALUE                 ((EPSRN) =  0.100000E-02
 
1
                            STRESS PERIOD NO.    1, LENGTH =   30.00000    
                            -----------------------------------------------

                              NUMBER OF TIME STEPS =        10

                               MULTIPLIER FOR DELT =     1.200

                            INITIAL TIME STEP SIZE =   1.155682    

 WEL -- WELL PACKAGE, VERSION 7, 5/2/2005 INPUT READ FROM UNIT   12

 WELL NO.  CLN-NODE       STRESS FACTOR         C01             
 ---------------------------------------------------------------
        1            3      -5.000           0.000           0.000    

      1 WELL 
 -------------------------------------------------------------------------------------
 
 SOLVING FOR HEAD 

 Outer-Iteration  Inner-Iteration  Backtracking  Number of        Incoming       Outgoing  Maximum HeadChange      Maximum Head Change
     Number           Count           Flag       Backtracks       Residual       Residual           Value              Location
        1                             0             0           25.0000          25.0000    
        1                5                                                                        -5.90203                   190           GWF-node number
        1                5                                                                        -14.9791                     3           CLN-node number
        2                             0             0          0.601088E-13     0.601088E-13
        2                1                                                                        0.309795E-08               611           GWF-node number
        2                1                                                                        0.262932E-08                 2           CLN-node number


     2 CALLS TO SPARSE MATRIX SOLVER PACKAGE  IN FLOW TIME STEP       1 STRESS PERIOD       1

 TOTAL OF       2OUTER ITERATIONS
  MAXIMUM CHANGE FOR EACH ITERATION:
   MAX. CHANGE        NODE  MAX. CHANGE        NODE  MAX. CHANGE        NODE  MAX. CHANGE        NODE  MAX. CHANGE        NODE
 ------------------------------------------------------------------------------------------------------------------------------------
   -5.9020    ,        190  0.30980E-08,        611

  MAXIMUM CHANGE FOR CLN NODE AT EACH ITERATION:
   MAX. CHANGE    CLN-CELL  MAX. CHANGE    CLN-CELL  MAX. CHANGE    CLN-CELL  MAX. CHANGE    CLN-CELL  MAX. CHANGE    CLN-CELL
 ------------------------------------------------------------------------------------------------------------------------------------
   -14.979    ,          3  0.26293E-08,          2

 HEAD/DRAWDOWN PRINTOUT FLAG = 1     TOTAL BUDGET PRINTOUT FLAG = 1
 CELL-BY-CELL FLOW TERM FLAG = 1
 CONCENTRATION PRINTOUT FLAG = 1

 OUTPUT FLAGS FOR ALL LAYERS ARE THE SAME:
   HEAD    DRAWDOWN  HEAD  DRAWDOWN    CONC    CONC
 PRINTOUT  PRINTOUT  SAVE    SAVE    PRINTOUT  SAVE
 ---------------------------------------------------
     0         0       1       1       0       1
 UBUDSVU SAVING "         STORAGE" ON UNIT  50 AT TIME STEP      1, STRESS PERIOD      1
 UBUDSV SAVING "     CLN STORAGE" ON UNIT 144 AT TIME STEP      1, STRESS PERIOD       1
 UBUDSVU SAVING "   CONSTANT HEAD" ON UNIT  50 AT TIME STEP      1, STRESS PERIOD      1
 UBUDSVU SAVING "   FLOW JA FACE " ON UNIT  50 AT TIME STEP      1, STRESS PERIOD      1
 UBUDSVU SAVING "             CLN" ON UNIT  50 AT TIME STEP      1, STRESS PERIOD      1
 UBUDSVU SAVING "  CLN CONST HEAD" ON UNIT 144 AT TIME STEP      1, STRESS PERIOD      1
 UBUDSVU SAVING "   FLOW CLN FACE" ON UNIT 144 AT TIME STEP      1, STRESS PERIOD      1
 UBUDSVU SAVING "             GWF" ON UNIT 144 AT TIME STEP      1, STRESS PERIOD      1
 UBUDSVU SAVING "           WELLS" ON UNIT  50 AT TIME STEP      1, STRESS PERIOD      1
 UBUDSVU SAVING "           WELLS" ON UNIT 144 AT TIME STEP      1, STRESS PERIOD      1

 HEAD WILL BE SAVED ON UNIT       30 AT END OF TIME STEP        1, STRESS PERIOD        1

 DRAWDOWN WILL BE SAVED ON UNIT   31 AT END OF TIME STEP   1, STRESS PERIOD    1

 CLN HEAD WILL BE SAVED ON UNIT   77 AT END OF TIME STEP   1, STRESS PERIOD    1
1
  VOLUMETRIC BUDGET FOR ENTIRE MODEL AT END OF TIME STEP       1 IN STRESS PERIOD       1
  ---------------------------------------------------------------------------------------

     CUMULATIVE VOLUMES      L**3       RATES FOR THIS TIME STEP      L**3/T
     ------------------                 ------------------------

           IN:                                      IN:
           ---                                      ---
             STORAGE =           5.7784               STORAGE =           5.0000
         CLN STORAGE =           0.0000           CLN STORAGE =           0.0000
       CONSTANT HEAD =           0.0000         CONSTANT HEAD =           0.0000
      CLN CONST HEAD =           0.0000        CLN CONST HEAD =           0.0000
               WELLS =           0.0000                 WELLS =           0.0000

            TOTAL IN =           5.7784              TOTAL IN =           5.0000

          OUT:                                     OUT:
          ----                                     ----
             STORAGE =           0.0000               STORAGE =           0.0000
         CLN STORAGE =           0.0000           CLN STORAGE =           0.0000
       CONSTANT HEAD =           0.0000         CONSTANT HEAD =           0.0000
      CLN CONST HEAD =           0.0000        CLN CONST HEAD =           0.0000
               WELLS =           5.7784                 WELLS =           5.0000

           TOTAL OUT =           5.7784             TOTAL OUT =           5.0000

            IN - OUT =      -8.5333E-08              IN - OUT =      -7.3837E-08

 PERCENT DISCREPANCY =          -0.00     PERCENT DISCREPANCY =          -0.00






          TIME SUMMARY AT END OF TIME STEP         1 IN STRESS PERIOD         1
                    SECONDS     MINUTES      HOURS       DAYS        YEARS
                    -----------------------------------------------------------
   TIME STEP LENGTH  99851.      1664.2      27.736      1.1557     3.16409E-03
 STRESS PERIOD TIME  99851.      1664.2      27.736      1.1557     3.16409E-03
         TOTAL TIME  99851.      1664.2      27.736      1.1557     3.16409E-03
1
 ------------------------------------------------------------------------------------------------------------
 
 SOLVING FOR TRANSPORT 

     INITIAL MASS OF COMPONENTS IN MOBILE DOMAIN
     --------------------------------------------
     COMPONENT INDEX     INITIAL MASS
     ---------------     ------------
              1        0.168076E+05

     INITIAL MASS OF COMPONENTS IN CLN DOMAIN
     -----------------------------------------
     COMPONENT INDEX     INITIAL MASS
     ---------------     ------------
              1        0.000000E+00

 ------------------------------------------------------------------------------------------------------------------------
     1 CALLS TO SPARSE MATRIX SOLVER PACKAGE IN TRANSPORT TIME STEP       1 STRESS PERIOD       1 SPECIES  1

 TOTAL OF       1OUTER ITERATIONS
  MAXIMUM CHANGE FOR EACH ITERATION:
   MAX. CHANGE        NODE  MAX. CHANGE        NODE  MAX. CHANGE        NODE  MAX. CHANGE        NODE  MAX. CHANGE        NODE
 ------------------------------------------------------------------------------------------------------------------------------------
   0.11033E-12,        191

  MAXIMUM CHANGE FOR CLN NODE AT EACH ITERATION:
   MAX. CHANGE    CLN-CELL  MAX. CHANGE    CLN-CELL  MAX. CHANGE    CLN-CELL  MAX. CHANGE    CLN-CELL  MAX. CHANGE    CLN-CELL
 ------------------------------------------------------------------------------------------------------------------------------------
   0.78327E-01,          1
     TRANSPORT SOLUTION COMPLETE FOR COMPONENT SPECIES NUMBER    1
     ------------------------------------------------------------
 UBUDSVU SAVING "    MASS STORAGE" ON UNIT 145 AT TIME STEP      1, STRESS PERIOD      1
 UBUDSVU SAVING "CLN MASS STORAGE" ON UNIT 145 AT TIME STEP      1, STRESS PERIOD      1
 UBUDSVU SAVING "CNST H MASS FLUX" ON UNIT 145 AT TIME STEP      1, STRESS PERIOD      1
 UBUDSVU SAVING "  WELL MASS FLUX" ON UNIT 145 AT TIME STEP      1, STRESS PERIOD      1

 TRANSPORT SOLUTION COMPLETE FOR ALL SPECIES, SORTING OUTPUT FOR CONCENTRATIONS AND MASS BALANCE
 ----------------------------------------------------------------------------------------------------
     TRANSPORT OUTPUT FOR COMPONENT SPECIES NUMBER    1
     ------------------------------------------------------------

 CONC WILL BE SAVED ON UNIT  132 AT END OF TIME STEP        1, STRESS PERIOD        1

 CLN CONC WILL BE SAVED ON UNIT  188 AT END OF TIME STEP   1, STRESS PERIOD    1
1
  VOLUMETRIC BUDGET FOR ENTIRE MODEL AT END OF TIME STEP       1 IN STRESS PERIOD       1
  ---------------------------------------------------------------------------------------

     CUMULATIVE VOLUMES      L**3       RATES FOR THIS TIME STEP      L**3/T
     ------------------                 ------------------------

           IN:                                      IN:
           ---                                      ---
        MASS STORAGE =           0.5778          MASS STORAGE =           0.5000
    CNST H MASS FLUX =           0.0000      CNST H MASS FLUX =           0.0000
      WELL MASS FLUX =           0.0000        WELL MASS FLUX =           0.0000

            TOTAL IN =           0.5778              TOTAL IN =           0.5000

          OUT:                                     OUT:
          ----                                     ----
        MASS STORAGE =           0.2033          MASS STORAGE =           0.1759
    CNST H MASS FLUX =           0.0000      CNST H MASS FLUX =           0.0000
      WELL MASS FLUX =           0.3746        WELL MASS FLUX =           0.3241

           TOTAL OUT =           0.5778             TOTAL OUT =           0.5000

            IN - OUT =      -1.6653E-15              IN - OUT =       1.4901E-08

 PERCENT DISCREPANCY =          -0.00     PERCENT DISCREPANCY =           0.00






          TIME SUMMARY AT END OF TIME STEP         1 IN STRESS PERIOD         1
                    SECONDS     MINUTES      HOURS       DAYS        YEARS
                    -----------------------------------------------------------
   TIME STEP LENGTH  99851.      1664.2      27.736      1.1557     3.16409E-03
 STRESS PERIOD TIME  99851.      1664.2      27.736      1.1557     3.16409E-03
         TOTAL TIME  99851.      1664.2      27.736      1.1557     3.16409E-03
1
 -------------------------------------------------------------------------------------
 
 SOLVING FOR HEAD 

 Outer-Iteration  Inner-Iteration  Backtracking  Number of        Incoming       Outgoing  Maximum HeadChange      Maximum Head Change
     Number           Count           Flag       Backtracks       Residual       Residual           Value              Location
        1                             0             0           1.69282          1.69282    
        1                5                                                                        -2.16782                   190           GWF-node number
        1                5                                                                        -2.15799                     1           CLN-node number
        2                             0             0          0.821556E-14     0.821556E-14
        2                1                                                                        0.461453E-07               190           GWF-node number
        2                1                                                                        0.129900E-06                 2           CLN-node number
     2 CALLS TO SPARSE MATRIX SOLVER PACKAGE  IN FLOW TIME STEP       2 STRESS PERIOD       1

 TOTAL OF       2OUTER ITERATIONS
  MAXIMUM CHANGE FOR EACH ITERATION:
   MAX. CHANGE        NODE  MAX. CHANGE        NODE  MAX. CHANGE        NODE  MAX. CHANGE        NODE  MAX. CHANGE        NODE
 ------------------------------------------------------------------------------------------------------------------------------------
   -2.1678    ,        190  0.46145E-07,        190

  MAXIMUM CHANGE FOR CLN NODE AT EACH ITERATION:
   MAX. CHANGE    CLN-CELL  MAX. CHANGE    CLN-CELL  MAX. CHANGE    CLN-CELL  MAX. CHANGE    CLN-CELL  MAX. CHANGE    CLN-CELL
 ------------------------------------------------------------------------------------------------------------------------------------
   -2.1580    ,          1  0.12990E-06,          2

 HEAD/DRAWDOWN PRINTOUT FLAG = 1     TOTAL BUDGET PRINTOUT FLAG = 1
 CELL-BY-CELL FLOW TERM FLAG = 1
 CONCENTRATION PRINTOUT FLAG = 1

 OUTPUT FLAGS FOR ALL LAYERS ARE THE SAME:
   HEAD    DRAWDOWN  HEAD  DRAWDOWN    CONC    CONC
 PRINTOUT  PRINTOUT  SAVE    SAVE    PRINTOUT  SAVE
 ---------------------------------------------------
     0         0       1       1       0       1
 UBUDSVU SAVING "         STORAGE" ON UNIT  50 AT TIME STEP      2, STRESS PERIOD      1
 UBUDSV SAVING "     CLN STORAGE" ON UNIT 144 AT TIME STEP      2, STRESS PERIOD       1
 UBUDSVU SAVING "   CONSTANT HEAD" ON UNIT  50 AT TIME STEP      2, STRESS PERIOD      1
 UBUDSVU SAVING "   FLOW JA FACE " ON UNIT  50 AT TIME STEP      2, STRESS PERIOD      1
 UBUDSVU SAVING "             CLN" ON UNIT  50 AT TIME STEP      2, STRESS PERIOD      1
 UBUDSVU SAVING "  CLN CONST HEAD" ON UNIT 144 AT TIME STEP      2, STRESS PERIOD      1
 UBUDSVU SAVING "   FLOW CLN FACE" ON UNIT 144 AT TIME STEP      2, STRESS PERIOD      1
 UBUDSVU SAVING "             GWF" ON UNIT 144 AT TIME STEP      2, STRESS PERIOD      1
 UBUDSVU SAVING "           WELLS" ON UNIT  50 AT TIME STEP      2, STRESS PERIOD      1
 UBUDSVU SAVING "           WELLS" ON UNIT 144 AT TIME STEP      2, STRESS PERIOD      1

 HEAD WILL BE SAVED ON UNIT       30 AT END OF TIME STEP        2, STRESS PERIOD        1

 DRAWDOWN WILL BE SAVED ON UNIT   31 AT END OF TIME STEP   2, STRESS PERIOD    1

 CLN HEAD WILL BE SAVED ON UNIT   77 AT END OF TIME STEP   2, STRESS PERIOD    1
1
  VOLUMETRIC BUDGET FOR ENTIRE MODEL AT END OF TIME STEP       2 IN STRESS PERIOD       1
  ---------------------------------------------------------------------------------------

     CUMULATIVE VOLUMES      L**3       RATES FOR THIS TIME STEP      L**3/T
     ------------------                 ------------------------

           IN:                                      IN:
           ---                                      ---
             STORAGE =          12.7125               STORAGE =           5.0000
         CLN STORAGE =           0.0000           CLN STORAGE =           0.0000
       CONSTANT HEAD =           0.0000         CONSTANT HEAD =           0.0000
      CLN CONST HEAD =           0.0000        CLN CONST HEAD =           0.0000
               WELLS =           0.0000                 WELLS =           0.0000

            TOTAL IN =          12.7125              TOTAL IN =           5.0000

          OUT:                                     OUT:
          ----                                     ----
             STORAGE =           0.0000               STORAGE =           0.0000
         CLN STORAGE =           0.0000           CLN STORAGE =           0.0000
       CONSTANT HEAD =           0.0000         CONSTANT HEAD =           0.0000
      CLN CONST HEAD =           0.0000        CLN CONST HEAD =           0.0000
               WELLS =          12.7125                 WELLS =           5.0000

           TOTAL OUT =          12.7125             TOTAL OUT =           5.0000

            IN - OUT =       2.7434E-08              IN - OUT =       8.1313E-08

 PERCENT DISCREPANCY =           0.00     PERCENT DISCREPANCY =           0.00






          TIME SUMMARY AT END OF TIME STEP         2 IN STRESS PERIOD         1
                    SECONDS     MINUTES      HOURS       DAYS        YEARS
                    -----------------------------------------------------------
   TIME STEP LENGTH 1.19821E+05  1997.0      33.284      1.3868     3.79690E-03
 STRESS PERIOD TIME 2.19672E+05  3661.2      61.020      2.5425     6.96099E-03
         TOTAL TIME 2.19672E+05  3661.2      61.020      2.5425     6.96099E-03
1
 ------------------------------------------------------------------------------------------------------------
 
 SOLVING FOR TRANSPORT 

 ------------------------------------------------------------------------------------------------------------------------
     1 CALLS TO SPARSE MATRIX SOLVER PACKAGE IN TRANSPORT TIME STEP       2 STRESS PERIOD       1 SPECIES  1

 TOTAL OF       1OUTER ITERATIONS
  MAXIMUM CHANGE FOR EACH ITERATION:
   MAX. CHANGE        NODE  MAX. CHANGE        NODE  MAX. CHANGE        NODE  MAX. CHANGE        NODE  MAX. CHANGE        NODE
 ------------------------------------------------------------------------------------------------------------------------------------
   0.65339E-11,        191

  MAXIMUM CHANGE FOR CLN NODE AT EACH ITERATION:
   MAX. CHANGE    CLN-CELL  MAX. CHANGE    CLN-CELL  MAX. CHANGE    CLN-CELL  MAX. CHANGE    CLN-CELL  MAX. CHANGE    CLN-CELL
 ------------------------------------------------------------------------------------------------------------------------------------
   0.26302E-01,          3
     TRANSPORT SOLUTION COMPLETE FOR COMPONENT SPECIES NUMBER    1
     ------------------------------------------------------------
 UBUDSVU SAVING "    MASS STORAGE" ON UNIT 145 AT TIME STEP      2, STRESS PERIOD      1
 UBUDSVU SAVING "CLN MASS STORAGE" ON UNIT 145 AT TIME STEP      2, STRESS PERIOD      1
 UBUDSVU SAVING "CNST H MASS FLUX" ON UNIT 145 AT TIME STEP      2, STRESS PERIOD      1
 UBUDSVU SAVING "  WELL MASS FLUX" ON UNIT 145 AT TIME STEP      2, STRESS PERIOD      1

 TRANSPORT SOLUTION COMPLETE FOR ALL SPECIES, SORTING OUTPUT FOR CONCENTRATIONS AND MASS BALANCE
 ----------------------------------------------------------------------------------------------------
     TRANSPORT OUTPUT FOR COMPONENT SPECIES NUMBER    1
     ------------------------------------------------------------

 CONC WILL BE SAVED ON UNIT  132 AT END OF TIME STEP        2, STRESS PERIOD        1

 CLN CONC WILL BE SAVED ON UNIT  188 AT END OF TIME STEP   2, STRESS PERIOD    1
1
  VOLUMETRIC BUDGET FOR ENTIRE MODEL AT END OF TIME STEP       2 IN STRESS PERIOD       1
  ---------------------------------------------------------------------------------------

     CUMULATIVE VOLUMES      L**3       RATES FOR THIS TIME STEP      L**3/T
     ------------------                 ------------------------

           IN:                                      IN:
           ---                                      ---
        MASS STORAGE =           1.2713          MASS STORAGE =           0.5000
    CNST H MASS FLUX =           0.0000      CNST H MASS FLUX =           0.0000
      WELL MASS FLUX =           0.0000        WELL MASS FLUX =           0.0000

            TOTAL IN =           1.2713              TOTAL IN =           0.5000

          OUT:                                     OUT:
          ----                                     ----
        MASS STORAGE =           0.2648          MASS STORAGE =       4.4363E-02
    CNST H MASS FLUX =           0.0000      CNST H MASS FLUX =           0.0000
      WELL MASS FLUX =           1.0065        WELL MASS FLUX =           0.4556

           TOTAL OUT =           1.2713             TOTAL OUT =           0.5000

            IN - OUT =      -6.5947E-14              IN - OUT =      -1.1176E-08

 PERCENT DISCREPANCY =          -0.00     PERCENT DISCREPANCY =          -0.00






          TIME SUMMARY AT END OF TIME STEP         2 IN STRESS PERIOD         1
                    SECONDS     MINUTES      HOURS       DAYS        YEARS
                    -----------------------------------------------------------
   TIME STEP LENGTH 1.19821E+05  1997.0      33.284      1.3868     3.79690E-03
 STRESS PERIOD TIME 2.19672E+05  3661.2      61.020      2.5425     6.96099E-03
         TOTAL TIME 2.19672E+05  3661.2      61.020      2.5425     6.96099E-03
1
 -------------------------------------------------------------------------------------
 
 SOLVING FOR HEAD 

 Outer-Iteration  Inner-Iteration  Backtracking  Number of        Incoming       Outgoing  Maximum HeadChange      Maximum Head Change
     Number           Count           Flag       Backtracks       Residual       Residual           Value              Location
        1                             0             0          0.520378         0.520378    
        1                6                                                                        -1.57413                   990           GWF-node number
        1                6                                                                        -1.20967                     1           CLN-node number
        2                             0             0          0.276946E-14     0.276946E-14
        2                1                                                                       -0.684899E-07               190           GWF-node number
        2                1                                                                       -0.182478E-06                 3           CLN-node number
     2 CALLS TO SPARSE MATRIX SOLVER PACKAGE  IN FLOW TIME STEP       3 STRESS PERIOD       1

 TOTAL OF       2OUTER ITERATIONS
  MAXIMUM CHANGE FOR EACH ITERATION:
   MAX. CHANGE        NODE  MAX. CHANGE        NODE  MAX. CHANGE        NODE  MAX. CHANGE        NODE  MAX. CHANGE        NODE
 ------------------------------------------------------------------------------------------------------------------------------------
   -1.5741    ,        990 -0.68490E-07,        190

  MAXIMUM CHANGE FOR CLN NODE AT EACH ITERATION:
   MAX. CHANGE    CLN-CELL  MAX. CHANGE    CLN-CELL  MAX. CHANGE    CLN-CELL  MAX. CHANGE    CLN-CELL  MAX. CHANGE    CLN-CELL
 ------------------------------------------------------------------------------------------------------------------------------------
   -1.2097    ,          1 -0.18248E-06,          3

 HEAD/DRAWDOWN PRINTOUT FLAG = 1     TOTAL BUDGET PRINTOUT FLAG = 1
 CELL-BY-CELL FLOW TERM FLAG = 1
 CONCENTRATION PRINTOUT FLAG = 1

 OUTPUT FLAGS FOR ALL LAYERS ARE THE SAME:
   HEAD    DRAWDOWN  HEAD  DRAWDOWN    CONC    CONC
 PRINTOUT  PRINTOUT  SAVE    SAVE    PRINTOUT  SAVE
 ---------------------------------------------------
     0         0       1       1       0       1
 UBUDSVU SAVING "         STORAGE" ON UNIT  50 AT TIME STEP      3, STRESS PERIOD      1
 UBUDSV SAVING "     CLN STORAGE" ON UNIT 144 AT TIME STEP      3, STRESS PERIOD       1
 UBUDSVU SAVING "   CONSTANT HEAD" ON UNIT  50 AT TIME STEP      3, STRESS PERIOD      1
 UBUDSVU SAVING "   FLOW JA FACE " ON UNIT  50 AT TIME STEP      3, STRESS PERIOD      1
 UBUDSVU SAVING "             CLN" ON UNIT  50 AT TIME STEP      3, STRESS PERIOD      1
 UBUDSVU SAVING "  CLN CONST HEAD" ON UNIT 144 AT TIME STEP      3, STRESS PERIOD      1
 UBUDSVU SAVING "   FLOW CLN FACE" ON UNIT 144 AT TIME STEP      3, STRESS PERIOD      1
 UBUDSVU SAVING "             GWF" ON UNIT 144 AT TIME STEP      3, STRESS PERIOD      1
 UBUDSVU SAVING "           WELLS" ON UNIT  50 AT TIME STEP      3, STRESS PERIOD      1
 UBUDSVU SAVING "           WELLS" ON UNIT 144 AT TIME STEP      3, STRESS PERIOD      1

 HEAD WILL BE SAVED ON UNIT       30 AT END OF TIME STEP        3, STRESS PERIOD        1

 DRAWDOWN WILL BE SAVED ON UNIT   31 AT END OF TIME STEP   3, STRESS PERIOD    1

 CLN HEAD WILL BE SAVED ON UNIT   77 AT END OF TIME STEP   3, STRESS PERIOD    1
1
  VOLUMETRIC BUDGET FOR ENTIRE MODEL AT END OF TIME STEP       3 IN STRESS PERIOD       1
  ---------------------------------------------------------------------------------------

     CUMULATIVE VOLUMES      L**3       RATES FOR THIS TIME STEP      L**3/T
     ------------------                 ------------------------

           IN:                                      IN:
           ---                                      ---
             STORAGE =          21.0334               STORAGE =           5.0000
         CLN STORAGE =           0.0000           CLN STORAGE =           0.0000
       CONSTANT HEAD =           0.0000         CONSTANT HEAD =           0.0000
      CLN CONST HEAD =           0.0000        CLN CONST HEAD =           0.0000
               WELLS =           0.0000                 WELLS =           0.0000

            TOTAL IN =          21.0334              TOTAL IN =           5.0000

          OUT:                                     OUT:
          ----                                     ----
             STORAGE =           0.0000               STORAGE =           0.0000
         CLN STORAGE =           0.0000           CLN STORAGE =           0.0000
       CONSTANT HEAD =           0.0000         CONSTANT HEAD =           0.0000
      CLN CONST HEAD =           0.0000        CLN CONST HEAD =           0.0000
               WELLS =          21.0334                 WELLS =           5.0000

           TOTAL OUT =          21.0334             TOTAL OUT =           5.0000

            IN - OUT =       3.1373E-08              IN - OUT =       2.3671E-09

 PERCENT DISCREPANCY =           0.00     PERCENT DISCREPANCY =           0.00






          TIME SUMMARY AT END OF TIME STEP         3 IN STRESS PERIOD         1
                    SECONDS     MINUTES      HOURS       DAYS        YEARS
                    -----------------------------------------------------------
   TIME STEP LENGTH 1.43785E+05  2396.4      39.940      1.6642     4.55628E-03
 STRESS PERIOD TIME 3.63458E+05  6057.6      100.96      4.2067     1.15173E-02
         TOTAL TIME 3.63458E+05  6057.6      100.96      4.2067     1.15173E-02
1
 ------------------------------------------------------------------------------------------------------------
 
 SOLVING FOR TRANSPORT 

 ------------------------------------------------------------------------------------------------------------------------
     1 CALLS TO SPARSE MATRIX SOLVER PACKAGE IN TRANSPORT TIME STEP       3 STRESS PERIOD       1 SPECIES  1

 TOTAL OF       1OUTER ITERATIONS
  MAXIMUM CHANGE FOR EACH ITERATION:
   MAX. CHANGE        NODE  MAX. CHANGE        NODE  MAX. CHANGE        NODE  MAX. CHANGE        NODE  MAX. CHANGE        NODE
 ------------------------------------------------------------------------------------------------------------------------------------
  -0.11367E-10,        191

  MAXIMUM CHANGE FOR CLN NODE AT EACH ITERATION:
   MAX. CHANGE    CLN-CELL  MAX. CHANGE    CLN-CELL  MAX. CHANGE    CLN-CELL  MAX. CHANGE    CLN-CELL  MAX. CHANGE    CLN-CELL
 ------------------------------------------------------------------------------------------------------------------------------------
   0.71143E-02,          3
     TRANSPORT SOLUTION COMPLETE FOR COMPONENT SPECIES NUMBER    1
     ------------------------------------------------------------
 UBUDSVU SAVING "    MASS STORAGE" ON UNIT 145 AT TIME STEP      3, STRESS PERIOD      1
 UBUDSVU SAVING "CLN MASS STORAGE" ON UNIT 145 AT TIME STEP      3, STRESS PERIOD      1
 UBUDSVU SAVING "CNST H MASS FLUX" ON UNIT 145 AT TIME STEP      3, STRESS PERIOD      1
 UBUDSVU SAVING "  WELL MASS FLUX" ON UNIT 145 AT TIME STEP      3, STRESS PERIOD      1

 TRANSPORT SOLUTION COMPLETE FOR ALL SPECIES, SORTING OUTPUT FOR CONCENTRATIONS AND MASS BALANCE
 ----------------------------------------------------------------------------------------------------
     TRANSPORT OUTPUT FOR COMPONENT SPECIES NUMBER    1
     ------------------------------------------------------------

 CONC WILL BE SAVED ON UNIT  132 AT END OF TIME STEP        3, STRESS PERIOD        1

 CLN CONC WILL BE SAVED ON UNIT  188 AT END OF TIME STEP   3, STRESS PERIOD    1
1
  VOLUMETRIC BUDGET FOR ENTIRE MODEL AT END OF TIME STEP       3 IN STRESS PERIOD       1
  ---------------------------------------------------------------------------------------

     CUMULATIVE VOLUMES      L**3       RATES FOR THIS TIME STEP      L**3/T
     ------------------                 ------------------------

           IN:                                      IN:
           ---                                      ---
        MASS STORAGE =           2.1033          MASS STORAGE =           0.5000
    CNST H MASS FLUX =           0.0000      CNST H MASS FLUX =           0.0000
      WELL MASS FLUX =           0.0000        WELL MASS FLUX =           0.0000

            TOTAL IN =           2.1033              TOTAL IN =           0.5000

          OUT:                                     OUT:
          ----                                     ----
        MASS STORAGE =           0.2794          MASS STORAGE =       8.7915E-03
    CNST H MASS FLUX =           0.0000      CNST H MASS FLUX =           0.0000
      WELL MASS FLUX =           1.8239        WELL MASS FLUX =           0.4912

           TOTAL OUT =           2.1033             TOTAL OUT =           0.5000

            IN - OUT =      -9.6811E-14              IN - OUT =      -8.3819E-09

 PERCENT DISCREPANCY =          -0.00     PERCENT DISCREPANCY =          -0.00






          TIME SUMMARY AT END OF TIME STEP         3 IN STRESS PERIOD         1
                    SECONDS     MINUTES      HOURS       DAYS        YEARS
                    -----------------------------------------------------------
   TIME STEP LENGTH 1.43785E+05  2396.4      39.940      1.6642     4.55628E-03
 STRESS PERIOD TIME 3.63458E+05  6057.6      100.96      4.2067     1.15173E-02
         TOTAL TIME 3.63458E+05  6057.6      100.96      4.2067     1.15173E-02
1
 -------------------------------------------------------------------------------------
 
 SOLVING FOR HEAD 

 Outer-Iteration  Inner-Iteration  Backtracking  Number of        Incoming       Outgoing  Maximum HeadChange      Maximum Head Change
     Number           Count           Flag       Backtracks       Residual       Residual           Value              Location
        1                             0             0          0.274203         0.274203    
        1                6                                                                        -1.18522                   990           GWF-node number
        1                6                                                                       -0.858033                     1           CLN-node number
        2                             0             0          0.384745E-14     0.384745E-14
        2                1                                                                        0.838061E-07               190           GWF-node number
        2                1                                                                        0.218569E-06                 3           CLN-node number
     2 CALLS TO SPARSE MATRIX SOLVER PACKAGE  IN FLOW TIME STEP       4 STRESS PERIOD       1

 TOTAL OF       2OUTER ITERATIONS
  MAXIMUM CHANGE FOR EACH ITERATION:
   MAX. CHANGE        NODE  MAX. CHANGE        NODE  MAX. CHANGE        NODE  MAX. CHANGE        NODE  MAX. CHANGE        NODE
 ------------------------------------------------------------------------------------------------------------------------------------
   -1.1852    ,        990  0.83806E-07,        190

  MAXIMUM CHANGE FOR CLN NODE AT EACH ITERATION:
   MAX. CHANGE    CLN-CELL  MAX. CHANGE    CLN-CELL  MAX. CHANGE    CLN-CELL  MAX. CHANGE    CLN-CELL  MAX. CHANGE    CLN-CELL
 ------------------------------------------------------------------------------------------------------------------------------------
  -0.85803    ,          1  0.21857E-06,          3

 HEAD/DRAWDOWN PRINTOUT FLAG = 1     TOTAL BUDGET PRINTOUT FLAG = 1
 CELL-BY-CELL FLOW TERM FLAG = 1
 CONCENTRATION PRINTOUT FLAG = 1

 OUTPUT FLAGS FOR ALL LAYERS ARE THE SAME:
   HEAD    DRAWDOWN  HEAD  DRAWDOWN    CONC    CONC
 PRINTOUT  PRINTOUT  SAVE    SAVE    PRINTOUT  SAVE
 ---------------------------------------------------
     0         0       1       1       0       1
 UBUDSVU SAVING "         STORAGE" ON UNIT  50 AT TIME STEP      4, STRESS PERIOD      1
 UBUDSV SAVING "     CLN STORAGE" ON UNIT 144 AT TIME STEP      4, STRESS PERIOD       1
 UBUDSVU SAVING "   CONSTANT HEAD" ON UNIT  50 AT TIME STEP      4, STRESS PERIOD      1
 UBUDSVU SAVING "   FLOW JA FACE " ON UNIT  50 AT TIME STEP      4, STRESS PERIOD      1
 UBUDSVU SAVING "             CLN" ON UNIT  50 AT TIME STEP      4, STRESS PERIOD      1
 UBUDSVU SAVING "  CLN CONST HEAD" ON UNIT 144 AT TIME STEP      4, STRESS PERIOD      1
 UBUDSVU SAVING "   FLOW CLN FACE" ON UNIT 144 AT TIME STEP      4, STRESS PERIOD      1
 UBUDSVU SAVING "             GWF" ON UNIT 144 AT TIME STEP      4, STRESS PERIOD      1
 UBUDSVU SAVING "           WELLS" ON UNIT  50 AT TIME STEP      4, STRESS PERIOD      1
 UBUDSVU SAVING "           WELLS" ON UNIT 144 AT TIME STEP      4, STRESS PERIOD      1

 HEAD WILL BE SAVED ON UNIT       30 AT END OF TIME STEP        4, STRESS PERIOD        1

 DRAWDOWN WILL BE SAVED ON UNIT   31 AT END OF TIME STEP   4, STRESS PERIOD    1

 CLN HEAD WILL BE SAVED ON UNIT   77 AT END OF TIME STEP   4, STRESS PERIOD    1
1
  VOLUMETRIC BUDGET FOR ENTIRE MODEL AT END OF TIME STEP       4 IN STRESS PERIOD       1
  ---------------------------------------------------------------------------------------

     CUMULATIVE VOLUMES      L**3       RATES FOR THIS TIME STEP      L**3/T
     ------------------                 ------------------------

           IN:                                      IN:
           ---                                      ---
             STORAGE =          31.0185               STORAGE =           5.0000
         CLN STORAGE =           0.0000           CLN STORAGE =           0.0000
       CONSTANT HEAD =           0.0000         CONSTANT HEAD =           0.0000
      CLN CONST HEAD =           0.0000        CLN CONST HEAD =           0.0000
               WELLS =           0.0000                 WELLS =           0.0000

            TOTAL IN =          31.0185              TOTAL IN =           5.0000

          OUT:                                     OUT:
          ----                                     ----
             STORAGE =           0.0000               STORAGE =           0.0000
         CLN STORAGE =           0.0000           CLN STORAGE =           0.0000
       CONSTANT HEAD =           0.0000         CONSTANT HEAD =           0.0000
      CLN CONST HEAD =           0.0000        CLN CONST HEAD =           0.0000
               WELLS =          31.0185                 WELLS =           5.0000

           TOTAL OUT =          31.0185             TOTAL OUT =           5.0000

            IN - OUT =       1.5881E-07              IN - OUT =       6.3813E-08

 PERCENT DISCREPANCY =           0.00     PERCENT DISCREPANCY =           0.00






          TIME SUMMARY AT END OF TIME STEP         4 IN STRESS PERIOD         1
                    SECONDS     MINUTES      HOURS       DAYS        YEARS
                    -----------------------------------------------------------
   TIME STEP LENGTH 1.72542E+05  2875.7      47.928      1.9970     5.46754E-03
 STRESS PERIOD TIME 5.36000E+05  8933.3      148.89      6.2037     1.69848E-02
         TOTAL TIME 5.36000E+05  8933.3      148.89      6.2037     1.69848E-02
1
 ------------------------------------------------------------------------------------------------------------
 
 SOLVING FOR TRANSPORT 

 ------------------------------------------------------------------------------------------------------------------------
     1 CALLS TO SPARSE MATRIX SOLVER PACKAGE IN TRANSPORT TIME STEP       4 STRESS PERIOD       1 SPECIES  1

 TOTAL OF       1OUTER ITERATIONS
  MAXIMUM CHANGE FOR EACH ITERATION:
   MAX. CHANGE        NODE  MAX. CHANGE        NODE  MAX. CHANGE        NODE  MAX. CHANGE        NODE  MAX. CHANGE        NODE
 ------------------------------------------------------------------------------------------------------------------------------------
   0.16695E-10,        191

  MAXIMUM CHANGE FOR CLN NODE AT EACH ITERATION:
   MAX. CHANGE    CLN-CELL  MAX. CHANGE    CLN-CELL  MAX. CHANGE    CLN-CELL  MAX. CHANGE    CLN-CELL  MAX. CHANGE    CLN-CELL
 ------------------------------------------------------------------------------------------------------------------------------------
   0.14758E-02,          3
     TRANSPORT SOLUTION COMPLETE FOR COMPONENT SPECIES NUMBER    1
     ------------------------------------------------------------
 UBUDSVU SAVING "    MASS STORAGE" ON UNIT 145 AT TIME STEP      4, STRESS PERIOD      1
 UBUDSVU SAVING "CLN MASS STORAGE" ON UNIT 145 AT TIME STEP      4, STRESS PERIOD      1
 UBUDSVU SAVING "CNST H MASS FLUX" ON UNIT 145 AT TIME STEP      4, STRESS PERIOD      1
 UBUDSVU SAVING "  WELL MASS FLUX" ON UNIT 145 AT TIME STEP      4, STRESS PERIOD      1

 TRANSPORT SOLUTION COMPLETE FOR ALL SPECIES, SORTING OUTPUT FOR CONCENTRATIONS AND MASS BALANCE
 ----------------------------------------------------------------------------------------------------
     TRANSPORT OUTPUT FOR COMPONENT SPECIES NUMBER    1
     ------------------------------------------------------------

 CONC WILL BE SAVED ON UNIT  132 AT END OF TIME STEP        4, STRESS PERIOD        1

 CLN CONC WILL BE SAVED ON UNIT  188 AT END OF TIME STEP   4, STRESS PERIOD    1
1
  VOLUMETRIC BUDGET FOR ENTIRE MODEL AT END OF TIME STEP       4 IN STRESS PERIOD       1
  ---------------------------------------------------------------------------------------

     CUMULATIVE VOLUMES      L**3       RATES FOR THIS TIME STEP      L**3/T
     ------------------                 ------------------------

           IN:                                      IN:
           ---                                      ---
        MASS STORAGE =           3.1019          MASS STORAGE =           0.5000
    CNST H MASS FLUX =           0.0000      CNST H MASS FLUX =           0.0000
      WELL MASS FLUX =           0.0000        WELL MASS FLUX =           0.0000

            TOTAL IN =           3.1019              TOTAL IN =           0.5000

          OUT:                                     OUT:
          ----                                     ----
        MASS STORAGE =           0.2822          MASS STORAGE =       1.4127E-03
    CNST H MASS FLUX =           0.0000      CNST H MASS FLUX =           0.0000
      WELL MASS FLUX =           2.8196        WELL MASS FLUX =           0.4986

           TOTAL OUT =           3.1019             TOTAL OUT =           0.5000

            IN - OUT =      -6.6169E-14              IN - OUT =      -1.1758E-08

 PERCENT DISCREPANCY =          -0.00     PERCENT DISCREPANCY =          -0.00






          TIME SUMMARY AT END OF TIME STEP         4 IN STRESS PERIOD         1
                    SECONDS     MINUTES      HOURS       DAYS        YEARS
                    -----------------------------------------------------------
   TIME STEP LENGTH 1.72542E+05  2875.7      47.928      1.9970     5.46754E-03
 STRESS PERIOD TIME 5.36000E+05  8933.3      148.89      6.2037     1.69848E-02
         TOTAL TIME 5.36000E+05  8933.3      148.89      6.2037     1.69848E-02
1
 -------------------------------------------------------------------------------------
 
 SOLVING FOR HEAD 

 Outer-Iteration  Inner-Iteration  Backtracking  Number of        Incoming       Outgoing  Maximum HeadChange      Maximum Head Change
     Number           Count           Flag       Backtracks       Residual       Residual           Value              Location
        1                             0             0          0.173121         0.173121    
        1                6                                                                       -0.910670                   990           GWF-node number
        1                6                                                                       -0.683508                     3           CLN-node number
        2                             0             0          0.241152E-14     0.241152E-14
        2                1                                                                       -0.768701E-08               519           GWF-node number
        2                1                                                                        0.187132E-07                 3           CLN-node number
     2 CALLS TO SPARSE MATRIX SOLVER PACKAGE  IN FLOW TIME STEP       5 STRESS PERIOD       1

 TOTAL OF       2OUTER ITERATIONS
  MAXIMUM CHANGE FOR EACH ITERATION:
   MAX. CHANGE        NODE  MAX. CHANGE        NODE  MAX. CHANGE        NODE  MAX. CHANGE        NODE  MAX. CHANGE        NODE
 ------------------------------------------------------------------------------------------------------------------------------------
  -0.91067    ,        990 -0.76870E-08,        519

  MAXIMUM CHANGE FOR CLN NODE AT EACH ITERATION:
   MAX. CHANGE    CLN-CELL  MAX. CHANGE    CLN-CELL  MAX. CHANGE    CLN-CELL  MAX. CHANGE    CLN-CELL  MAX. CHANGE    CLN-CELL
 ------------------------------------------------------------------------------------------------------------------------------------
  -0.68351    ,          3  0.18713E-07,          3

 HEAD/DRAWDOWN PRINTOUT FLAG = 1     TOTAL BUDGET PRINTOUT FLAG = 1
 CELL-BY-CELL FLOW TERM FLAG = 1
 CONCENTRATION PRINTOUT FLAG = 1

 OUTPUT FLAGS FOR ALL LAYERS ARE THE SAME:
   HEAD    DRAWDOWN  HEAD  DRAWDOWN    CONC    CONC
 PRINTOUT  PRINTOUT  SAVE    SAVE    PRINTOUT  SAVE
 ---------------------------------------------------
     0         0       1       1       0       1
 UBUDSVU SAVING "         STORAGE" ON UNIT  50 AT TIME STEP      5, STRESS PERIOD      1
 UBUDSV SAVING "     CLN STORAGE" ON UNIT 144 AT TIME STEP      5, STRESS PERIOD       1
 UBUDSVU SAVING "   CONSTANT HEAD" ON UNIT  50 AT TIME STEP      5, STRESS PERIOD      1
 UBUDSVU SAVING "   FLOW JA FACE " ON UNIT  50 AT TIME STEP      5, STRESS PERIOD      1
 UBUDSVU SAVING "             CLN" ON UNIT  50 AT TIME STEP      5, STRESS PERIOD      1
 UBUDSVU SAVING "  CLN CONST HEAD" ON UNIT 144 AT TIME STEP      5, STRESS PERIOD      1
 UBUDSVU SAVING "   FLOW CLN FACE" ON UNIT 144 AT TIME STEP      5, STRESS PERIOD      1
 UBUDSVU SAVING "             GWF" ON UNIT 144 AT TIME STEP      5, STRESS PERIOD      1
 UBUDSVU SAVING "           WELLS" ON UNIT  50 AT TIME STEP      5, STRESS PERIOD      1
 UBUDSVU SAVING "           WELLS" ON UNIT 144 AT TIME STEP      5, STRESS PERIOD      1

 HEAD WILL BE SAVED ON UNIT       30 AT END OF TIME STEP        5, STRESS PERIOD        1

 DRAWDOWN WILL BE SAVED ON UNIT   31 AT END OF TIME STEP   5, STRESS PERIOD    1

 CLN HEAD WILL BE SAVED ON UNIT   77 AT END OF TIME STEP   5, STRESS PERIOD    1
1
  VOLUMETRIC BUDGET FOR ENTIRE MODEL AT END OF TIME STEP       5 IN STRESS PERIOD       1
  ---------------------------------------------------------------------------------------

     CUMULATIVE VOLUMES      L**3       RATES FOR THIS TIME STEP      L**3/T
     ------------------                 ------------------------

           IN:                                      IN:
           ---                                      ---
             STORAGE =          43.0006               STORAGE =           5.0000
         CLN STORAGE =           0.0000           CLN STORAGE =           0.0000
       CONSTANT HEAD =           0.0000         CONSTANT HEAD =           0.0000
      CLN CONST HEAD =           0.0000        CLN CONST HEAD =           0.0000
               WELLS =           0.0000                 WELLS =           0.0000

            TOTAL IN =          43.0006              TOTAL IN =           5.0000

          OUT:                                     OUT:
          ----                                     ----
             STORAGE =           0.0000               STORAGE =           0.0000
         CLN STORAGE =           0.0000           CLN STORAGE =           0.0000
       CONSTANT HEAD =           0.0000         CONSTANT HEAD =           0.0000
      CLN CONST HEAD =           0.0000        CLN CONST HEAD =           0.0000
               WELLS =          43.0006                 WELLS =           5.0000

           TOTAL OUT =          43.0006             TOTAL OUT =           5.0000

            IN - OUT =       4.4302E-07              IN - OUT =       1.1860E-07

 PERCENT DISCREPANCY =           0.00     PERCENT DISCREPANCY =           0.00






          TIME SUMMARY AT END OF TIME STEP         5 IN STRESS PERIOD         1
                    SECONDS     MINUTES      HOURS       DAYS        YEARS
                    -----------------------------------------------------------
   TIME STEP LENGTH 2.07051E+05  3450.8      57.514      2.3964     6.56105E-03
 STRESS PERIOD TIME 7.43051E+05  12384.      206.40      8.6001     2.35459E-02
         TOTAL TIME 7.43051E+05  12384.      206.40      8.6001     2.35459E-02
1
 ------------------------------------------------------------------------------------------------------------
 
 SOLVING FOR TRANSPORT 

 ------------------------------------------------------------------------------------------------------------------------
     1 CALLS TO SPARSE MATRIX SOLVER PACKAGE IN TRANSPORT TIME STEP       5 STRESS PERIOD       1 SPECIES  1

 TOTAL OF       1OUTER ITERATIONS
  MAXIMUM CHANGE FOR EACH ITERATION:
   MAX. CHANGE        NODE  MAX. CHANGE        NODE  MAX. CHANGE        NODE  MAX. CHANGE        NODE  MAX. CHANGE        NODE
 ------------------------------------------------------------------------------------------------------------------------------------
   0.16145E-11,        191

  MAXIMUM CHANGE FOR CLN NODE AT EACH ITERATION:
   MAX. CHANGE    CLN-CELL  MAX. CHANGE    CLN-CELL  MAX. CHANGE    CLN-CELL  MAX. CHANGE    CLN-CELL  MAX. CHANGE    CLN-CELL
 ------------------------------------------------------------------------------------------------------------------------------------
   0.24521E-03,          3
     TRANSPORT SOLUTION COMPLETE FOR COMPONENT SPECIES NUMBER    1
     ------------------------------------------------------------
 UBUDSVU SAVING "    MASS STORAGE" ON UNIT 145 AT TIME STEP      5, STRESS PERIOD      1
 UBUDSVU SAVING "CLN MASS STORAGE" ON UNIT 145 AT TIME STEP      5, STRESS PERIOD      1
 UBUDSVU SAVING "CNST H MASS FLUX" ON UNIT 145 AT TIME STEP      5, STRESS PERIOD      1
 UBUDSVU SAVING "  WELL MASS FLUX" ON UNIT 145 AT TIME STEP      5, STRESS PERIOD      1

 TRANSPORT SOLUTION COMPLETE FOR ALL SPECIES, SORTING OUTPUT FOR CONCENTRATIONS AND MASS BALANCE
 ----------------------------------------------------------------------------------------------------
     TRANSPORT OUTPUT FOR COMPONENT SPECIES NUMBER    1
     ------------------------------------------------------------

 CONC WILL BE SAVED ON UNIT  132 AT END OF TIME STEP        5, STRESS PERIOD        1

 CLN CONC WILL BE SAVED ON UNIT  188 AT END OF TIME STEP   5, STRESS PERIOD    1
1
  VOLUMETRIC BUDGET FOR ENTIRE MODEL AT END OF TIME STEP       5 IN STRESS PERIOD       1
  ---------------------------------------------------------------------------------------

     CUMULATIVE VOLUMES      L**3       RATES FOR THIS TIME STEP      L**3/T
     ------------------                 ------------------------

           IN:                                      IN:
           ---                                      ---
        MASS STORAGE =           4.3001          MASS STORAGE =           0.5000
    CNST H MASS FLUX =           0.0000      CNST H MASS FLUX =           0.0000
      WELL MASS FLUX =           0.0000        WELL MASS FLUX =           0.0000

            TOTAL IN =           4.3001              TOTAL IN =           0.5000

          OUT:                                     OUT:
          ----                                     ----
        MASS STORAGE =           0.2827          MASS STORAGE =       1.8665E-04
    CNST H MASS FLUX =           0.0000      CNST H MASS FLUX =           0.0000
      WELL MASS FLUX =           4.0174        WELL MASS FLUX =           0.4998

           TOTAL OUT =           4.3001             TOTAL OUT =           0.5000

            IN - OUT =       4.4409E-14              IN - OUT =      -2.3909E-08

 PERCENT DISCREPANCY =           0.00     PERCENT DISCREPANCY =          -0.00






          TIME SUMMARY AT END OF TIME STEP         5 IN STRESS PERIOD         1
                    SECONDS     MINUTES      HOURS       DAYS        YEARS
                    -----------------------------------------------------------
   TIME STEP LENGTH 2.07051E+05  3450.8      57.514      2.3964     6.56105E-03
 STRESS PERIOD TIME 7.43051E+05  12384.      206.40      8.6001     2.35459E-02
         TOTAL TIME 7.43051E+05  12384.      206.40      8.6001     2.35459E-02
1
 -------------------------------------------------------------------------------------
 
 SOLVING FOR HEAD 

 Outer-Iteration  Inner-Iteration  Backtracking  Number of        Incoming       Outgoing  Maximum HeadChange      Maximum Head Change
     Number           Count           Flag       Backtracks       Residual       Residual           Value              Location
        1                             0             0          0.120905         0.120905    
        1                6                                                                       -0.832123                   590           GWF-node number
        1                6                                                                       -0.581210                     3           CLN-node number
        2                             0             0          0.258287E-13     0.258287E-13
        2                1                                                                       -0.195033E-06               190           GWF-node number
        2                1                                                                       -0.488667E-06                 3           CLN-node number
     2 CALLS TO SPARSE MATRIX SOLVER PACKAGE  IN FLOW TIME STEP       6 STRESS PERIOD       1

 TOTAL OF       2OUTER ITERATIONS
  MAXIMUM CHANGE FOR EACH ITERATION:
   MAX. CHANGE        NODE  MAX. CHANGE        NODE  MAX. CHANGE        NODE  MAX. CHANGE        NODE  MAX. CHANGE        NODE
 ------------------------------------------------------------------------------------------------------------------------------------
  -0.83212    ,        590 -0.19503E-06,        190

  MAXIMUM CHANGE FOR CLN NODE AT EACH ITERATION:
   MAX. CHANGE    CLN-CELL  MAX. CHANGE    CLN-CELL  MAX. CHANGE    CLN-CELL  MAX. CHANGE    CLN-CELL  MAX. CHANGE    CLN-CELL
 ------------------------------------------------------------------------------------------------------------------------------------
  -0.58121    ,          3 -0.48867E-06,          3

 HEAD/DRAWDOWN PRINTOUT FLAG = 1     TOTAL BUDGET PRINTOUT FLAG = 1
 CELL-BY-CELL FLOW TERM FLAG = 1
 CONCENTRATION PRINTOUT FLAG = 1

 OUTPUT FLAGS FOR ALL LAYERS ARE THE SAME:
   HEAD    DRAWDOWN  HEAD  DRAWDOWN    CONC    CONC
 PRINTOUT  PRINTOUT  SAVE    SAVE    PRINTOUT  SAVE
 ---------------------------------------------------
     0         0       1       1       0       1
 UBUDSVU SAVING "         STORAGE" ON UNIT  50 AT TIME STEP      6, STRESS PERIOD      1
 UBUDSV SAVING "     CLN STORAGE" ON UNIT 144 AT TIME STEP      6, STRESS PERIOD       1
 UBUDSVU SAVING "   CONSTANT HEAD" ON UNIT  50 AT TIME STEP      6, STRESS PERIOD      1
 UBUDSVU SAVING "   FLOW JA FACE " ON UNIT  50 AT TIME STEP      6, STRESS PERIOD      1
 UBUDSVU SAVING "             CLN" ON UNIT  50 AT TIME STEP      6, STRESS PERIOD      1
 UBUDSVU SAVING "  CLN CONST HEAD" ON UNIT 144 AT TIME STEP      6, STRESS PERIOD      1
 UBUDSVU SAVING "   FLOW CLN FACE" ON UNIT 144 AT TIME STEP      6, STRESS PERIOD      1
 UBUDSVU SAVING "             GWF" ON UNIT 144 AT TIME STEP      6, STRESS PERIOD      1
 UBUDSVU SAVING "           WELLS" ON UNIT  50 AT TIME STEP      6, STRESS PERIOD      1
 UBUDSVU SAVING "           WELLS" ON UNIT 144 AT TIME STEP      6, STRESS PERIOD      1

 HEAD WILL BE SAVED ON UNIT       30 AT END OF TIME STEP        6, STRESS PERIOD        1

 DRAWDOWN WILL BE SAVED ON UNIT   31 AT END OF TIME STEP   6, STRESS PERIOD    1

 CLN HEAD WILL BE SAVED ON UNIT   77 AT END OF TIME STEP   6, STRESS PERIOD    1
1
  VOLUMETRIC BUDGET FOR ENTIRE MODEL AT END OF TIME STEP       6 IN STRESS PERIOD       1
  ---------------------------------------------------------------------------------------

     CUMULATIVE VOLUMES      L**3       RATES FOR THIS TIME STEP      L**3/T
     ------------------                 ------------------------

           IN:                                      IN:
           ---                                      ---
             STORAGE =          57.3792               STORAGE =           5.0000
         CLN STORAGE =           0.0000           CLN STORAGE =           0.0000
       CONSTANT HEAD =           0.0000         CONSTANT HEAD =           0.0000
      CLN CONST HEAD =           0.0000        CLN CONST HEAD =           0.0000
               WELLS =           0.0000                 WELLS =           0.0000

            TOTAL IN =          57.3792              TOTAL IN =           5.0000

          OUT:                                     OUT:
          ----                                     ----
             STORAGE =           0.0000               STORAGE =           0.0000
         CLN STORAGE =           0.0000           CLN STORAGE =           0.0000
       CONSTANT HEAD =           0.0000         CONSTANT HEAD =           0.0000
      CLN CONST HEAD =           0.0000        CLN CONST HEAD =           0.0000
               WELLS =          57.3792                 WELLS =           5.0000

           TOTAL OUT =          57.3792             TOTAL OUT =           5.0000

            IN - OUT =       4.0228E-07              IN - OUT =      -1.4167E-08

 PERCENT DISCREPANCY =           0.00     PERCENT DISCREPANCY =          -0.00






          TIME SUMMARY AT END OF TIME STEP         6 IN STRESS PERIOD         1
                    SECONDS     MINUTES      HOURS       DAYS        YEARS
                    -----------------------------------------------------------
   TIME STEP LENGTH 2.48461E+05  4141.0      69.017      2.8757     7.87326E-03
 STRESS PERIOD TIME 9.91512E+05  16525.      275.42      11.476     3.14191E-02
         TOTAL TIME 9.91512E+05  16525.      275.42      11.476     3.14191E-02
1
 ------------------------------------------------------------------------------------------------------------
 
 SOLVING FOR TRANSPORT 

 ------------------------------------------------------------------------------------------------------------------------
     1 CALLS TO SPARSE MATRIX SOLVER PACKAGE IN TRANSPORT TIME STEP       6 STRESS PERIOD       1 SPECIES  1

 TOTAL OF       1OUTER ITERATIONS
  MAXIMUM CHANGE FOR EACH ITERATION:
   MAX. CHANGE        NODE  MAX. CHANGE        NODE  MAX. CHANGE        NODE  MAX. CHANGE        NODE  MAX. CHANGE        NODE
 ------------------------------------------------------------------------------------------------------------------------------------
  -0.55924E-10,        191

  MAXIMUM CHANGE FOR CLN NODE AT EACH ITERATION:
   MAX. CHANGE    CLN-CELL  MAX. CHANGE    CLN-CELL  MAX. CHANGE    CLN-CELL  MAX. CHANGE    CLN-CELL  MAX. CHANGE    CLN-CELL
 ------------------------------------------------------------------------------------------------------------------------------------
   0.33246E-04,          3
     TRANSPORT SOLUTION COMPLETE FOR COMPONENT SPECIES NUMBER    1
     ------------------------------------------------------------
 UBUDSVU SAVING "    MASS STORAGE" ON UNIT 145 AT TIME STEP      6, STRESS PERIOD      1
 UBUDSVU SAVING "CLN MASS STORAGE" ON UNIT 145 AT TIME STEP      6, STRESS PERIOD      1
 UBUDSVU SAVING "CNST H MASS FLUX" ON UNIT 145 AT TIME STEP      6, STRESS PERIOD      1
 UBUDSVU SAVING "  WELL MASS FLUX" ON UNIT 145 AT TIME STEP      6, STRESS PERIOD      1

 TRANSPORT SOLUTION COMPLETE FOR ALL SPECIES, SORTING OUTPUT FOR CONCENTRATIONS AND MASS BALANCE
 ----------------------------------------------------------------------------------------------------
     TRANSPORT OUTPUT FOR COMPONENT SPECIES NUMBER    1
     ------------------------------------------------------------

 CONC WILL BE SAVED ON UNIT  132 AT END OF TIME STEP        6, STRESS PERIOD        1

 CLN CONC WILL BE SAVED ON UNIT  188 AT END OF TIME STEP   6, STRESS PERIOD    1
1
  VOLUMETRIC BUDGET FOR ENTIRE MODEL AT END OF TIME STEP       6 IN STRESS PERIOD       1
  ---------------------------------------------------------------------------------------

     CUMULATIVE VOLUMES      L**3       RATES FOR THIS TIME STEP      L**3/T
     ------------------                 ------------------------

           IN:                                      IN:
           ---                                      ---
        MASS STORAGE =           5.7379          MASS STORAGE =           0.5000
    CNST H MASS FLUX =           0.0000      CNST H MASS FLUX =           0.0000
      WELL MASS FLUX =           0.0000        WELL MASS FLUX =           0.0000

            TOTAL IN =           5.7379              TOTAL IN =           0.5000

          OUT:                                     OUT:
          ----                                     ----
        MASS STORAGE =           0.2827          MASS STORAGE =       2.0415E-05
    CNST H MASS FLUX =           0.0000      CNST H MASS FLUX =           0.0000
      WELL MASS FLUX =           5.4552        WELL MASS FLUX =           0.5000

           TOTAL OUT =           5.7379             TOTAL OUT =           0.5000

            IN - OUT =       2.0428E-14              IN - OUT =      -3.0428E-08

 PERCENT DISCREPANCY =           0.00     PERCENT DISCREPANCY =          -0.00






          TIME SUMMARY AT END OF TIME STEP         6 IN STRESS PERIOD         1
                    SECONDS     MINUTES      HOURS       DAYS        YEARS
                    -----------------------------------------------------------
   TIME STEP LENGTH 2.48461E+05  4141.0      69.017      2.8757     7.87326E-03
 STRESS PERIOD TIME 9.91512E+05  16525.      275.42      11.476     3.14191E-02
         TOTAL TIME 9.91512E+05  16525.      275.42      11.476     3.14191E-02
1
 -------------------------------------------------------------------------------------
 
 SOLVING FOR HEAD 

 Outer-Iteration  Inner-Iteration  Backtracking  Number of        Incoming       Outgoing  Maximum HeadChange      Maximum Head Change
     Number           Count           Flag       Backtracks       Residual       Residual           Value              Location
        1                             0             0          0.910244E-01     0.910244E-01
        1                6                                                                       -0.939859                   590           GWF-node number
        1                6                                                                       -0.517628                     1           CLN-node number
        2                             0             0          0.775250E-14     0.775250E-14
        2                1                                                                        0.846001E-07               190           GWF-node number
        2                1                                                                        0.226773E-06                 3           CLN-node number
     2 CALLS TO SPARSE MATRIX SOLVER PACKAGE  IN FLOW TIME STEP       7 STRESS PERIOD       1

 TOTAL OF       2OUTER ITERATIONS
  MAXIMUM CHANGE FOR EACH ITERATION:
   MAX. CHANGE        NODE  MAX. CHANGE        NODE  MAX. CHANGE        NODE  MAX. CHANGE        NODE  MAX. CHANGE        NODE
 ------------------------------------------------------------------------------------------------------------------------------------
  -0.93986    ,        590  0.84600E-07,        190

  MAXIMUM CHANGE FOR CLN NODE AT EACH ITERATION:
   MAX. CHANGE    CLN-CELL  MAX. CHANGE    CLN-CELL  MAX. CHANGE    CLN-CELL  MAX. CHANGE    CLN-CELL  MAX. CHANGE    CLN-CELL
 ------------------------------------------------------------------------------------------------------------------------------------
  -0.51763    ,          1  0.22677E-06,          3

 HEAD/DRAWDOWN PRINTOUT FLAG = 1     TOTAL BUDGET PRINTOUT FLAG = 1
 CELL-BY-CELL FLOW TERM FLAG = 1
 CONCENTRATION PRINTOUT FLAG = 1

 OUTPUT FLAGS FOR ALL LAYERS ARE THE SAME:
   HEAD    DRAWDOWN  HEAD  DRAWDOWN    CONC    CONC
 PRINTOUT  PRINTOUT  SAVE    SAVE    PRINTOUT  SAVE
 ---------------------------------------------------
     0         0       1       1       0       1
 UBUDSVU SAVING "         STORAGE" ON UNIT  50 AT TIME STEP      7, STRESS PERIOD      1
 UBUDSV SAVING "     CLN STORAGE" ON UNIT 144 AT TIME STEP      7, STRESS PERIOD       1
 UBUDSVU SAVING "   CONSTANT HEAD" ON UNIT  50 AT TIME STEP      7, STRESS PERIOD      1
 UBUDSVU SAVING "   FLOW JA FACE " ON UNIT  50 AT TIME STEP      7, STRESS PERIOD      1
 UBUDSVU SAVING "             CLN" ON UNIT  50 AT TIME STEP      7, STRESS PERIOD      1
 UBUDSVU SAVING "  CLN CONST HEAD" ON UNIT 144 AT TIME STEP      7, STRESS PERIOD      1
 UBUDSVU SAVING "   FLOW CLN FACE" ON UNIT 144 AT TIME STEP      7, STRESS PERIOD      1
 UBUDSVU SAVING "             GWF" ON UNIT 144 AT TIME STEP      7, STRESS PERIOD      1
 UBUDSVU SAVING "           WELLS" ON UNIT  50 AT TIME STEP      7, STRESS PERIOD      1
 UBUDSVU SAVING "           WELLS" ON UNIT 144 AT TIME STEP      7, STRESS PERIOD      1

 HEAD WILL BE SAVED ON UNIT       30 AT END OF TIME STEP        7, STRESS PERIOD        1

 DRAWDOWN WILL BE SAVED ON UNIT   31 AT END OF TIME STEP   7, STRESS PERIOD    1

 CLN HEAD WILL BE SAVED ON UNIT   77 AT END OF TIME STEP   7, STRESS PERIOD    1
1
  VOLUMETRIC BUDGET FOR ENTIRE MODEL AT END OF TIME STEP       7 IN STRESS PERIOD       1
  ---------------------------------------------------------------------------------------

     CUMULATIVE VOLUMES      L**3       RATES FOR THIS TIME STEP      L**3/T
     ------------------                 ------------------------

           IN:                                      IN:
           ---                                      ---
             STORAGE =          74.6334               STORAGE =           5.0000
         CLN STORAGE =           0.0000           CLN STORAGE =           0.0000
       CONSTANT HEAD =           0.0000         CONSTANT HEAD =           0.0000
      CLN CONST HEAD =           0.0000        CLN CONST HEAD =           0.0000
               WELLS =           0.0000                 WELLS =           0.0000

            TOTAL IN =          74.6334              TOTAL IN =           5.0000

          OUT:                                     OUT:
          ----                                     ----
             STORAGE =           0.0000               STORAGE =           0.0000
         CLN STORAGE =           0.0000           CLN STORAGE =           0.0000
       CONSTANT HEAD =           0.0000         CONSTANT HEAD =           0.0000
      CLN CONST HEAD =           0.0000        CLN CONST HEAD =           0.0000
               WELLS =          74.6334                 WELLS =           5.0000

           TOTAL OUT =          74.6334             TOTAL OUT =           5.0000

            IN - OUT =       8.5230E-07              IN - OUT =       1.3041E-07

 PERCENT DISCREPANCY =           0.00     PERCENT DISCREPANCY =           0.00






          TIME SUMMARY AT END OF TIME STEP         7 IN STRESS PERIOD         1
                    SECONDS     MINUTES      HOURS       DAYS        YEARS
                    -----------------------------------------------------------
   TIME STEP LENGTH 2.98153E+05  4969.2      82.820      3.4509     9.44791E-03
 STRESS PERIOD TIME 1.28967E+06  21494.      358.24      14.927     4.08670E-02
         TOTAL TIME 1.28967E+06  21494.      358.24      14.927     4.08670E-02
1
 ------------------------------------------------------------------------------------------------------------
 
 SOLVING FOR TRANSPORT 

 ------------------------------------------------------------------------------------------------------------------------
     1 CALLS TO SPARSE MATRIX SOLVER PACKAGE IN TRANSPORT TIME STEP       7 STRESS PERIOD       1 SPECIES  1

 TOTAL OF       1OUTER ITERATIONS
  MAXIMUM CHANGE FOR EACH ITERATION:
   MAX. CHANGE        NODE  MAX. CHANGE        NODE  MAX. CHANGE        NODE  MAX. CHANGE        NODE  MAX. CHANGE        NODE
 ------------------------------------------------------------------------------------------------------------------------------------
   0.32296E-10,        191

  MAXIMUM CHANGE FOR CLN NODE AT EACH ITERATION:
   MAX. CHANGE    CLN-CELL  MAX. CHANGE    CLN-CELL  MAX. CHANGE    CLN-CELL  MAX. CHANGE    CLN-CELL  MAX. CHANGE    CLN-CELL
 ------------------------------------------------------------------------------------------------------------------------------------
   0.37116E-05,          3
     TRANSPORT SOLUTION COMPLETE FOR COMPONENT SPECIES NUMBER    1
     ------------------------------------------------------------
 UBUDSVU SAVING "    MASS STORAGE" ON UNIT 145 AT TIME STEP      7, STRESS PERIOD      1
 UBUDSVU SAVING "CLN MASS STORAGE" ON UNIT 145 AT TIME STEP      7, STRESS PERIOD      1
 UBUDSVU SAVING "CNST H MASS FLUX" ON UNIT 145 AT TIME STEP      7, STRESS PERIOD      1
 UBUDSVU SAVING "  WELL MASS FLUX" ON UNIT 145 AT TIME STEP      7, STRESS PERIOD      1

 TRANSPORT SOLUTION COMPLETE FOR ALL SPECIES, SORTING OUTPUT FOR CONCENTRATIONS AND MASS BALANCE
 ----------------------------------------------------------------------------------------------------
     TRANSPORT OUTPUT FOR COMPONENT SPECIES NUMBER    1
     ------------------------------------------------------------

 CONC WILL BE SAVED ON UNIT  132 AT END OF TIME STEP        7, STRESS PERIOD        1

 CLN CONC WILL BE SAVED ON UNIT  188 AT END OF TIME STEP   7, STRESS PERIOD    1
1
  VOLUMETRIC BUDGET FOR ENTIRE MODEL AT END OF TIME STEP       7 IN STRESS PERIOD       1
  ---------------------------------------------------------------------------------------

     CUMULATIVE VOLUMES      L**3       RATES FOR THIS TIME STEP      L**3/T
     ------------------                 ------------------------

           IN:                                      IN:
           ---                                      ---
        MASS STORAGE =           7.4633          MASS STORAGE =           0.5000
    CNST H MASS FLUX =           0.0000      CNST H MASS FLUX =           0.0000
      WELL MASS FLUX =           0.0000        WELL MASS FLUX =           0.0000

            TOTAL IN =           7.4633              TOTAL IN =           0.5000

          OUT:                                     OUT:
          ----                                     ----
        MASS STORAGE =           0.2827          MASS STORAGE =       1.8552E-06
    CNST H MASS FLUX =           0.0000      CNST H MASS FLUX =           0.0000
      WELL MASS FLUX =           7.1806        WELL MASS FLUX =           0.5000

           TOTAL OUT =           7.4633             TOTAL OUT =           0.5000

            IN - OUT =      -8.4377E-14              IN - OUT =      -7.4153E-09

 PERCENT DISCREPANCY =          -0.00     PERCENT DISCREPANCY =          -0.00






          TIME SUMMARY AT END OF TIME STEP         7 IN STRESS PERIOD         1
                    SECONDS     MINUTES      HOURS       DAYS        YEARS
                    -----------------------------------------------------------
   TIME STEP LENGTH 2.98153E+05  4969.2      82.820      3.4509     9.44791E-03
 STRESS PERIOD TIME 1.28967E+06  21494.      358.24      14.927     4.08670E-02
         TOTAL TIME 1.28967E+06  21494.      358.24      14.927     4.08670E-02
1
 -------------------------------------------------------------------------------------
 
 SOLVING FOR HEAD 

 Outer-Iteration  Inner-Iteration  Backtracking  Number of        Incoming       Outgoing  Maximum HeadChange      Maximum Head Change
     Number           Count           Flag       Backtracks       Residual       Residual           Value              Location
        1                             0             0          0.733190E-01     0.733190E-01
        1                7                                                                        -1.03392                   590           GWF-node number
        1                7                                                                       -0.479351                     2           CLN-node number
        2                             0             0          0.712965E-14     0.712965E-14
        2                1                                                                       -0.104177E-06               190           GWF-node number
        2                1                                                                       -0.258285E-06                 3           CLN-node number
     2 CALLS TO SPARSE MATRIX SOLVER PACKAGE  IN FLOW TIME STEP       8 STRESS PERIOD       1

 TOTAL OF       2OUTER ITERATIONS
  MAXIMUM CHANGE FOR EACH ITERATION:
   MAX. CHANGE        NODE  MAX. CHANGE        NODE  MAX. CHANGE        NODE  MAX. CHANGE        NODE  MAX. CHANGE        NODE
 ------------------------------------------------------------------------------------------------------------------------------------
   -1.0339    ,        590 -0.10418E-06,        190

  MAXIMUM CHANGE FOR CLN NODE AT EACH ITERATION:
   MAX. CHANGE    CLN-CELL  MAX. CHANGE    CLN-CELL  MAX. CHANGE    CLN-CELL  MAX. CHANGE    CLN-CELL  MAX. CHANGE    CLN-CELL
 ------------------------------------------------------------------------------------------------------------------------------------
  -0.47935    ,          2 -0.25829E-06,          3

 HEAD/DRAWDOWN PRINTOUT FLAG = 1     TOTAL BUDGET PRINTOUT FLAG = 1
 CELL-BY-CELL FLOW TERM FLAG = 1
 CONCENTRATION PRINTOUT FLAG = 1

 OUTPUT FLAGS FOR ALL LAYERS ARE THE SAME:
   HEAD    DRAWDOWN  HEAD  DRAWDOWN    CONC    CONC
 PRINTOUT  PRINTOUT  SAVE    SAVE    PRINTOUT  SAVE
 ---------------------------------------------------
     0         0       1       1       0       1
 UBUDSVU SAVING "         STORAGE" ON UNIT  50 AT TIME STEP      8, STRESS PERIOD      1
 UBUDSV SAVING "     CLN STORAGE" ON UNIT 144 AT TIME STEP      8, STRESS PERIOD       1
 UBUDSVU SAVING "   CONSTANT HEAD" ON UNIT  50 AT TIME STEP      8, STRESS PERIOD      1
 UBUDSVU SAVING "   FLOW JA FACE " ON UNIT  50 AT TIME STEP      8, STRESS PERIOD      1
 UBUDSVU SAVING "             CLN" ON UNIT  50 AT TIME STEP      8, STRESS PERIOD      1
 UBUDSVU SAVING "  CLN CONST HEAD" ON UNIT 144 AT TIME STEP      8, STRESS PERIOD      1
 UBUDSVU SAVING "   FLOW CLN FACE" ON UNIT 144 AT TIME STEP      8, STRESS PERIOD      1
 UBUDSVU SAVING "             GWF" ON UNIT 144 AT TIME STEP      8, STRESS PERIOD      1
 UBUDSVU SAVING "           WELLS" ON UNIT  50 AT TIME STEP      8, STRESS PERIOD      1
 UBUDSVU SAVING "           WELLS" ON UNIT 144 AT TIME STEP      8, STRESS PERIOD      1

 HEAD WILL BE SAVED ON UNIT       30 AT END OF TIME STEP        8, STRESS PERIOD        1

 DRAWDOWN WILL BE SAVED ON UNIT   31 AT END OF TIME STEP   8, STRESS PERIOD    1

 CLN HEAD WILL BE SAVED ON UNIT   77 AT END OF TIME STEP   8, STRESS PERIOD    1
1
  VOLUMETRIC BUDGET FOR ENTIRE MODEL AT END OF TIME STEP       8 IN STRESS PERIOD       1
  ---------------------------------------------------------------------------------------

     CUMULATIVE VOLUMES      L**3       RATES FOR THIS TIME STEP      L**3/T
     ------------------                 ------------------------

           IN:                                      IN:
           ---                                      ---
             STORAGE =          95.3385               STORAGE =           5.0000
         CLN STORAGE =           0.0000           CLN STORAGE =           0.0000
       CONSTANT HEAD =           0.0000         CONSTANT HEAD =           0.0000
      CLN CONST HEAD =           0.0000        CLN CONST HEAD =           0.0000
               WELLS =           0.0000                 WELLS =           0.0000

            TOTAL IN =          95.3385              TOTAL IN =           5.0000

          OUT:                                     OUT:
          ----                                     ----
             STORAGE =           0.0000               STORAGE =           0.0000
         CLN STORAGE =           0.0000           CLN STORAGE =           0.0000
       CONSTANT HEAD =           0.0000         CONSTANT HEAD =           0.0000
      CLN CONST HEAD =           0.0000        CLN CONST HEAD =           0.0000
               WELLS =          95.3385                 WELLS =           5.0000

           TOTAL OUT =          95.3385             TOTAL OUT =           5.0000

            IN - OUT =       9.4305E-07              IN - OUT =       2.1915E-08

 PERCENT DISCREPANCY =           0.00     PERCENT DISCREPANCY =           0.00






          TIME SUMMARY AT END OF TIME STEP         8 IN STRESS PERIOD         1
                    SECONDS     MINUTES      HOURS       DAYS        YEARS
                    -----------------------------------------------------------
   TIME STEP LENGTH 3.57784E+05  5963.1      99.384      4.1410     1.13375E-02
 STRESS PERIOD TIME 1.64745E+06  27457.      457.62      19.068     5.22045E-02
         TOTAL TIME 1.64745E+06  27457.      457.62      19.068     5.22045E-02
1
 ------------------------------------------------------------------------------------------------------------
 
 SOLVING FOR TRANSPORT 

 ------------------------------------------------------------------------------------------------------------------------
     1 CALLS TO SPARSE MATRIX SOLVER PACKAGE IN TRANSPORT TIME STEP       8 STRESS PERIOD       1 SPECIES  1

 TOTAL OF       1OUTER ITERATIONS
  MAXIMUM CHANGE FOR EACH ITERATION:
   MAX. CHANGE        NODE  MAX. CHANGE        NODE  MAX. CHANGE        NODE  MAX. CHANGE        NODE  MAX. CHANGE        NODE
 ------------------------------------------------------------------------------------------------------------------------------------
  -0.43396E-10,        191

  MAXIMUM CHANGE FOR CLN NODE AT EACH ITERATION:
   MAX. CHANGE    CLN-CELL  MAX. CHANGE    CLN-CELL  MAX. CHANGE    CLN-CELL  MAX. CHANGE    CLN-CELL  MAX. CHANGE    CLN-CELL
 ------------------------------------------------------------------------------------------------------------------------------------
   0.34316E-06,          3
     TRANSPORT SOLUTION COMPLETE FOR COMPONENT SPECIES NUMBER    1
     ------------------------------------------------------------
 UBUDSVU SAVING "    MASS STORAGE" ON UNIT 145 AT TIME STEP      8, STRESS PERIOD      1
 UBUDSVU SAVING "CLN MASS STORAGE" ON UNIT 145 AT TIME STEP      8, STRESS PERIOD      1
 UBUDSVU SAVING "CNST H MASS FLUX" ON UNIT 145 AT TIME STEP      8, STRESS PERIOD      1
 UBUDSVU SAVING "  WELL MASS FLUX" ON UNIT 145 AT TIME STEP      8, STRESS PERIOD      1

 TRANSPORT SOLUTION COMPLETE FOR ALL SPECIES, SORTING OUTPUT FOR CONCENTRATIONS AND MASS BALANCE
 ----------------------------------------------------------------------------------------------------
     TRANSPORT OUTPUT FOR COMPONENT SPECIES NUMBER    1
     ------------------------------------------------------------

 CONC WILL BE SAVED ON UNIT  132 AT END OF TIME STEP        8, STRESS PERIOD        1

 CLN CONC WILL BE SAVED ON UNIT  188 AT END OF TIME STEP   8, STRESS PERIOD    1
1
  VOLUMETRIC BUDGET FOR ENTIRE MODEL AT END OF TIME STEP       8 IN STRESS PERIOD       1
  ---------------------------------------------------------------------------------------

     CUMULATIVE VOLUMES      L**3       RATES FOR THIS TIME STEP      L**3/T
     ------------------                 ------------------------

           IN:                                      IN:
           ---                                      ---
        MASS STORAGE =           9.5339          MASS STORAGE =           0.5000
    CNST H MASS FLUX =           0.0000      CNST H MASS FLUX =           0.0000
      WELL MASS FLUX =           0.0000        WELL MASS FLUX =           0.0000

            TOTAL IN =           9.5339              TOTAL IN =           0.5000

          OUT:                                     OUT:
          ----                                     ----
        MASS STORAGE =           0.2827          MASS STORAGE =       1.4060E-07
    CNST H MASS FLUX =           0.0000      CNST H MASS FLUX =           0.0000
      WELL MASS FLUX =           9.2511        WELL MASS FLUX =           0.5000

           TOTAL OUT =           9.5339             TOTAL OUT =           0.5000

            IN - OUT =      -2.0693E-11              IN - OUT =      -2.1386E-08

 PERCENT DISCREPANCY =          -0.00     PERCENT DISCREPANCY =          -0.00






          TIME SUMMARY AT END OF TIME STEP         8 IN STRESS PERIOD         1
                    SECONDS     MINUTES      HOURS       DAYS        YEARS
                    -----------------------------------------------------------
   TIME STEP LENGTH 3.57784E+05  5963.1      99.384      4.1410     1.13375E-02
 STRESS PERIOD TIME 1.64745E+06  27457.      457.62      19.068     5.22045E-02
         TOTAL TIME 1.64745E+06  27457.      457.62      19.068     5.22045E-02
1
 -------------------------------------------------------------------------------------
 
 SOLVING FOR HEAD 

 Outer-Iteration  Inner-Iteration  Backtracking  Number of        Incoming       Outgoing  Maximum HeadChange      Maximum Head Change
     Number           Count           Flag       Backtracks       Residual       Residual           Value              Location
        1                             0             0          0.628943E-01     0.628943E-01
        1                7                                                                        -1.10841                   590           GWF-node number
        1                7                                                                       -0.460940                     1           CLN-node number
        2                             0             0          0.474449E-14     0.474449E-14
        2                1                                                                        0.540296E-07               190           GWF-node number
        2                1                                                                        0.130927E-06                 3           CLN-node number
     2 CALLS TO SPARSE MATRIX SOLVER PACKAGE  IN FLOW TIME STEP       9 STRESS PERIOD       1

 TOTAL OF       2OUTER ITERATIONS
  MAXIMUM CHANGE FOR EACH ITERATION:
   MAX. CHANGE        NODE  MAX. CHANGE        NODE  MAX. CHANGE        NODE  MAX. CHANGE        NODE  MAX. CHANGE        NODE
 ------------------------------------------------------------------------------------------------------------------------------------
   -1.1084    ,        590  0.54030E-07,        190

  MAXIMUM CHANGE FOR CLN NODE AT EACH ITERATION:
   MAX. CHANGE    CLN-CELL  MAX. CHANGE    CLN-CELL  MAX. CHANGE    CLN-CELL  MAX. CHANGE    CLN-CELL  MAX. CHANGE    CLN-CELL
 ------------------------------------------------------------------------------------------------------------------------------------
  -0.46094    ,          1  0.13093E-06,          3

 HEAD/DRAWDOWN PRINTOUT FLAG = 1     TOTAL BUDGET PRINTOUT FLAG = 1
 CELL-BY-CELL FLOW TERM FLAG = 1
 CONCENTRATION PRINTOUT FLAG = 1

 OUTPUT FLAGS FOR ALL LAYERS ARE THE SAME:
   HEAD    DRAWDOWN  HEAD  DRAWDOWN    CONC    CONC
 PRINTOUT  PRINTOUT  SAVE    SAVE    PRINTOUT  SAVE
 ---------------------------------------------------
     0         0       1       1       0       1
 UBUDSVU SAVING "         STORAGE" ON UNIT  50 AT TIME STEP      9, STRESS PERIOD      1
 UBUDSV SAVING "     CLN STORAGE" ON UNIT 144 AT TIME STEP      9, STRESS PERIOD       1
 UBUDSVU SAVING "   CONSTANT HEAD" ON UNIT  50 AT TIME STEP      9, STRESS PERIOD      1
 UBUDSVU SAVING "   FLOW JA FACE " ON UNIT  50 AT TIME STEP      9, STRESS PERIOD      1
 UBUDSVU SAVING "             CLN" ON UNIT  50 AT TIME STEP      9, STRESS PERIOD      1
 UBUDSVU SAVING "  CLN CONST HEAD" ON UNIT 144 AT TIME STEP      9, STRESS PERIOD      1
 UBUDSVU SAVING "   FLOW CLN FACE" ON UNIT 144 AT TIME STEP      9, STRESS PERIOD      1
 UBUDSVU SAVING "             GWF" ON UNIT 144 AT TIME STEP      9, STRESS PERIOD      1
 UBUDSVU SAVING "           WELLS" ON UNIT  50 AT TIME STEP      9, STRESS PERIOD      1
 UBUDSVU SAVING "           WELLS" ON UNIT 144 AT TIME STEP      9, STRESS PERIOD      1

 HEAD WILL BE SAVED ON UNIT       30 AT END OF TIME STEP        9, STRESS PERIOD        1

 DRAWDOWN WILL BE SAVED ON UNIT   31 AT END OF TIME STEP   9, STRESS PERIOD    1

 CLN HEAD WILL BE SAVED ON UNIT   77 AT END OF TIME STEP   9, STRESS PERIOD    1
1
  VOLUMETRIC BUDGET FOR ENTIRE MODEL AT END OF TIME STEP       9 IN STRESS PERIOD       1
  ---------------------------------------------------------------------------------------

     CUMULATIVE VOLUMES      L**3       RATES FOR THIS TIME STEP      L**3/T
     ------------------                 ------------------------

           IN:                                      IN:
           ---                                      ---
             STORAGE =         120.1846               STORAGE =           5.0000
         CLN STORAGE =           0.0000           CLN STORAGE =           0.0000
       CONSTANT HEAD =           0.0000         CONSTANT HEAD =           0.0000
      CLN CONST HEAD =           0.0000        CLN CONST HEAD =           0.0000
               WELLS =           0.0000                 WELLS =           0.0000

            TOTAL IN =         120.1846              TOTAL IN =           5.0000

          OUT:                                     OUT:
          ----                                     ----
             STORAGE =           0.0000               STORAGE =           0.0000
         CLN STORAGE =           0.0000           CLN STORAGE =           0.0000
       CONSTANT HEAD =           0.0000         CONSTANT HEAD =           0.0000
      CLN CONST HEAD =           0.0000        CLN CONST HEAD =           0.0000
               WELLS =         120.1846                 WELLS =           5.0000

           TOTAL OUT =         120.1846             TOTAL OUT =           5.0000

            IN - OUT =       1.4633E-06              IN - OUT =       1.0469E-07

 PERCENT DISCREPANCY =           0.00     PERCENT DISCREPANCY =           0.00






          TIME SUMMARY AT END OF TIME STEP         9 IN STRESS PERIOD         1
                    SECONDS     MINUTES      HOURS       DAYS        YEARS
                    -----------------------------------------------------------
   TIME STEP LENGTH 4.29341E+05  7155.7      119.26      4.9692     1.36050E-02
 STRESS PERIOD TIME 2.07679E+06  34613.      576.89      24.037     6.58095E-02
         TOTAL TIME 2.07679E+06  34613.      576.89      24.037     6.58095E-02
1
 ------------------------------------------------------------------------------------------------------------
 
 SOLVING FOR TRANSPORT 

 ------------------------------------------------------------------------------------------------------------------------
     1 CALLS TO SPARSE MATRIX SOLVER PACKAGE IN TRANSPORT TIME STEP       9 STRESS PERIOD       1 SPECIES  1

 TOTAL OF       1OUTER ITERATIONS
  MAXIMUM CHANGE FOR EACH ITERATION:
   MAX. CHANGE        NODE  MAX. CHANGE        NODE  MAX. CHANGE        NODE  MAX. CHANGE        NODE  MAX. CHANGE        NODE
 ------------------------------------------------------------------------------------------------------------------------------------
   0.28122E-10,        191

  MAXIMUM CHANGE FOR CLN NODE AT EACH ITERATION:
   MAX. CHANGE    CLN-CELL  MAX. CHANGE    CLN-CELL  MAX. CHANGE    CLN-CELL  MAX. CHANGE    CLN-CELL  MAX. CHANGE    CLN-CELL
 ------------------------------------------------------------------------------------------------------------------------------------
   0.26220E-07,          3
     TRANSPORT SOLUTION COMPLETE FOR COMPONENT SPECIES NUMBER    1
     ------------------------------------------------------------
 UBUDSVU SAVING "    MASS STORAGE" ON UNIT 145 AT TIME STEP      9, STRESS PERIOD      1
 UBUDSVU SAVING "CLN MASS STORAGE" ON UNIT 145 AT TIME STEP      9, STRESS PERIOD      1
 UBUDSVU SAVING "CNST H MASS FLUX" ON UNIT 145 AT TIME STEP      9, STRESS PERIOD      1
 UBUDSVU SAVING "  WELL MASS FLUX" ON UNIT 145 AT TIME STEP      9, STRESS PERIOD      1

 TRANSPORT SOLUTION COMPLETE FOR ALL SPECIES, SORTING OUTPUT FOR CONCENTRATIONS AND MASS BALANCE
 ----------------------------------------------------------------------------------------------------
     TRANSPORT OUTPUT FOR COMPONENT SPECIES NUMBER    1
     ------------------------------------------------------------

 CONC WILL BE SAVED ON UNIT  132 AT END OF TIME STEP        9, STRESS PERIOD        1

 CLN CONC WILL BE SAVED ON UNIT  188 AT END OF TIME STEP   9, STRESS PERIOD    1
1
  VOLUMETRIC BUDGET FOR ENTIRE MODEL AT END OF TIME STEP       9 IN STRESS PERIOD       1
  ---------------------------------------------------------------------------------------

     CUMULATIVE VOLUMES      L**3       RATES FOR THIS TIME STEP      L**3/T
     ------------------                 ------------------------

           IN:                                      IN:
           ---                                      ---
        MASS STORAGE =          12.0185          MASS STORAGE =           0.5000
    CNST H MASS FLUX =           0.0000      CNST H MASS FLUX =           0.0000
      WELL MASS FLUX =           0.0000        WELL MASS FLUX =           0.0000

            TOTAL IN =          12.0185              TOTAL IN =           0.5000

          OUT:                                     OUT:
          ----                                     ----
        MASS STORAGE =           0.2827          MASS STORAGE =       8.6992E-09
    CNST H MASS FLUX =           0.0000      CNST H MASS FLUX =           0.0000
      WELL MASS FLUX =          11.7357        WELL MASS FLUX =           0.5000

           TOTAL OUT =          12.0185             TOTAL OUT =           0.5000

            IN - OUT =      -7.9936E-13              IN - OUT =      -8.6992E-09

 PERCENT DISCREPANCY =          -0.00     PERCENT DISCREPANCY =          -0.00






          TIME SUMMARY AT END OF TIME STEP         9 IN STRESS PERIOD         1
                    SECONDS     MINUTES      HOURS       DAYS        YEARS
                    -----------------------------------------------------------
   TIME STEP LENGTH 4.29341E+05  7155.7      119.26      4.9692     1.36050E-02
 STRESS PERIOD TIME 2.07679E+06  34613.      576.89      24.037     6.58095E-02
         TOTAL TIME 2.07679E+06  34613.      576.89      24.037     6.58095E-02
1
 -------------------------------------------------------------------------------------
 
 SOLVING FOR HEAD 

 Outer-Iteration  Inner-Iteration  Backtracking  Number of        Incoming       Outgoing  Maximum HeadChange      Maximum Head Change
     Number           Count           Flag       Backtracks       Residual       Residual           Value              Location
        1                             0             0          0.568871E-01     0.568871E-01
        1                7                                                                        -1.15835                   590           GWF-node number
        1                7                                                                       -0.460936                     1           CLN-node number
        2                             0             0          0.679586E-14     0.679586E-14
        2                1                                                                       -0.639878E-07               590           GWF-node number
        2                1                                                                       -0.921991E-07                 3           CLN-node number
     2 CALLS TO SPARSE MATRIX SOLVER PACKAGE  IN FLOW TIME STEP      10 STRESS PERIOD       1

 TOTAL OF       2OUTER ITERATIONS
  MAXIMUM CHANGE FOR EACH ITERATION:
   MAX. CHANGE        NODE  MAX. CHANGE        NODE  MAX. CHANGE        NODE  MAX. CHANGE        NODE  MAX. CHANGE        NODE
 ------------------------------------------------------------------------------------------------------------------------------------
   -1.1584    ,        590 -0.63988E-07,        590

  MAXIMUM CHANGE FOR CLN NODE AT EACH ITERATION:
   MAX. CHANGE    CLN-CELL  MAX. CHANGE    CLN-CELL  MAX. CHANGE    CLN-CELL  MAX. CHANGE    CLN-CELL  MAX. CHANGE    CLN-CELL
 ------------------------------------------------------------------------------------------------------------------------------------
  -0.46094    ,          1 -0.92199E-07,          3

 HEAD/DRAWDOWN PRINTOUT FLAG = 1     TOTAL BUDGET PRINTOUT FLAG = 1
 CELL-BY-CELL FLOW TERM FLAG = 1
 CONCENTRATION PRINTOUT FLAG = 1

 OUTPUT FLAGS FOR ALL LAYERS ARE THE SAME:
   HEAD    DRAWDOWN  HEAD  DRAWDOWN    CONC    CONC
 PRINTOUT  PRINTOUT  SAVE    SAVE    PRINTOUT  SAVE
 ---------------------------------------------------
     0         0       1       1       0       1
 UBUDSVU SAVING "         STORAGE" ON UNIT  50 AT TIME STEP     10, STRESS PERIOD      1
 UBUDSV SAVING "     CLN STORAGE" ON UNIT 144 AT TIME STEP     10, STRESS PERIOD       1
 UBUDSVU SAVING "   CONSTANT HEAD" ON UNIT  50 AT TIME STEP     10, STRESS PERIOD      1
 UBUDSVU SAVING "   FLOW JA FACE " ON UNIT  50 AT TIME STEP     10, STRESS PERIOD      1
 UBUDSVU SAVING "             CLN" ON UNIT  50 AT TIME STEP     10, STRESS PERIOD      1
 UBUDSVU SAVING "  CLN CONST HEAD" ON UNIT 144 AT TIME STEP     10, STRESS PERIOD      1
 UBUDSVU SAVING "   FLOW CLN FACE" ON UNIT 144 AT TIME STEP     10, STRESS PERIOD      1
 UBUDSVU SAVING "             GWF" ON UNIT 144 AT TIME STEP     10, STRESS PERIOD      1
 UBUDSVU SAVING "           WELLS" ON UNIT  50 AT TIME STEP     10, STRESS PERIOD      1
 UBUDSVU SAVING "           WELLS" ON UNIT 144 AT TIME STEP     10, STRESS PERIOD      1

 HEAD WILL BE SAVED ON UNIT       30 AT END OF TIME STEP       10, STRESS PERIOD        1

 DRAWDOWN WILL BE SAVED ON UNIT   31 AT END OF TIME STEP  10, STRESS PERIOD    1

 CLN HEAD WILL BE SAVED ON UNIT   77 AT END OF TIME STEP  10, STRESS PERIOD    1
1
  VOLUMETRIC BUDGET FOR ENTIRE MODEL AT END OF TIME STEP      10 IN STRESS PERIOD       1
  ---------------------------------------------------------------------------------------

     CUMULATIVE VOLUMES      L**3       RATES FOR THIS TIME STEP      L**3/T
     ------------------                 ------------------------

           IN:                                      IN:
           ---                                      ---
             STORAGE =         150.0000               STORAGE =           5.0000
         CLN STORAGE =           0.0000           CLN STORAGE =           0.0000
       CONSTANT HEAD =           0.0000         CONSTANT HEAD =           0.0000
      CLN CONST HEAD =           0.0000        CLN CONST HEAD =           0.0000
               WELLS =           0.0000                 WELLS =           0.0000

            TOTAL IN =         150.0000              TOTAL IN =           5.0000

          OUT:                                     OUT:
          ----                                     ----
             STORAGE =           0.0000               STORAGE =           0.0000
         CLN STORAGE =           0.0000           CLN STORAGE =           0.0000
       CONSTANT HEAD =           0.0000         CONSTANT HEAD =           0.0000
      CLN CONST HEAD =           0.0000        CLN CONST HEAD =           0.0000
               WELLS =         150.0000                 WELLS =           5.0000

           TOTAL OUT =         150.0000             TOTAL OUT =           5.0000

            IN - OUT =       2.1605E-06              IN - OUT =       1.1693E-07

 PERCENT DISCREPANCY =           0.00     PERCENT DISCREPANCY =           0.00






          TIME SUMMARY AT END OF TIME STEP        10 IN STRESS PERIOD         1
                    SECONDS     MINUTES      HOURS       DAYS        YEARS
                    -----------------------------------------------------------
   TIME STEP LENGTH 5.15209E+05  8586.8      143.11      5.9631     1.63260E-02
 STRESS PERIOD TIME 2.59200E+06  43200.      720.00      30.000     8.21355E-02
         TOTAL TIME 2.59200E+06  43200.      720.00      30.000     8.21355E-02
1
 ------------------------------------------------------------------------------------------------------------
 
 SOLVING FOR TRANSPORT 

 ------------------------------------------------------------------------------------------------------------------------
     1 CALLS TO SPARSE MATRIX SOLVER PACKAGE IN TRANSPORT TIME STEP      10 STRESS PERIOD       1 SPECIES  1

 TOTAL OF       1OUTER ITERATIONS
  MAXIMUM CHANGE FOR EACH ITERATION:
   MAX. CHANGE        NODE  MAX. CHANGE        NODE  MAX. CHANGE        NODE  MAX. CHANGE        NODE  MAX. CHANGE        NODE
 ------------------------------------------------------------------------------------------------------------------------------------
  -0.21810E-10,        191

  MAXIMUM CHANGE FOR CLN NODE AT EACH ITERATION:
   MAX. CHANGE    CLN-CELL  MAX. CHANGE    CLN-CELL  MAX. CHANGE    CLN-CELL  MAX. CHANGE    CLN-CELL  MAX. CHANGE    CLN-CELL
 ------------------------------------------------------------------------------------------------------------------------------------
   0.30094E-08,          3
     TRANSPORT SOLUTION COMPLETE FOR COMPONENT SPECIES NUMBER    1
     ------------------------------------------------------------
 UBUDSVU SAVING "    MASS STORAGE" ON UNIT 145 AT TIME STEP     10, STRESS PERIOD      1
 UBUDSVU SAVING "CLN MASS STORAGE" ON UNIT 145 AT TIME STEP     10, STRESS PERIOD      1
 UBUDSVU SAVING "CNST H MASS FLUX" ON UNIT 145 AT TIME STEP     10, STRESS PERIOD      1
 UBUDSVU SAVING "  WELL MASS FLUX" ON UNIT 145 AT TIME STEP     10, STRESS PERIOD      1

 TRANSPORT SOLUTION COMPLETE FOR ALL SPECIES, SORTING OUTPUT FOR CONCENTRATIONS AND MASS BALANCE
 ----------------------------------------------------------------------------------------------------
     TRANSPORT OUTPUT FOR COMPONENT SPECIES NUMBER    1
     ------------------------------------------------------------

 CONC WILL BE SAVED ON UNIT  132 AT END OF TIME STEP       10, STRESS PERIOD        1

 CLN CONC WILL BE SAVED ON UNIT  188 AT END OF TIME STEP  10, STRESS PERIOD    1
1
  VOLUMETRIC BUDGET FOR ENTIRE MODEL AT END OF TIME STEP      10 IN STRESS PERIOD       1
  ---------------------------------------------------------------------------------------

     CUMULATIVE VOLUMES      L**3       RATES FOR THIS TIME STEP      L**3/T
     ------------------                 ------------------------

           IN:                                      IN:
           ---                                      ---
        MASS STORAGE =          15.0000          MASS STORAGE =           0.5000
    CNST H MASS FLUX =           0.0000      CNST H MASS FLUX =           0.0000
      WELL MASS FLUX =           0.0000        WELL MASS FLUX =           0.0000

            TOTAL IN =          15.0000              TOTAL IN =           0.5000

          OUT:                                     OUT:
          ----                                     ----
        MASS STORAGE =           0.2827          MASS STORAGE =       7.7039E-10
    CNST H MASS FLUX =           0.0000      CNST H MASS FLUX =           0.0000
      WELL MASS FLUX =          14.7173        WELL MASS FLUX =           0.5000

           TOTAL OUT =          15.0000             TOTAL OUT =           0.5000

            IN - OUT =      -2.7345E-11              IN - OUT =      -7.7039E-10

 PERCENT DISCREPANCY =          -0.00     PERCENT DISCREPANCY =          -0.00






          TIME SUMMARY AT END OF TIME STEP        10 IN STRESS PERIOD         1
                    SECONDS     MINUTES      HOURS       DAYS        YEARS
                    -----------------------------------------------------------
   TIME STEP LENGTH 5.15209E+05  8586.8      143.11      5.9631     1.63260E-02
 STRESS PERIOD TIME 2.59200E+06  43200.      720.00      30.000     8.21355E-02
         TOTAL TIME 2.59200E+06  43200.      720.00      30.000     8.21355E-02
1
1
                            STRESS PERIOD NO.    2, LENGTH =   30.00000    
                            -----------------------------------------------

                              NUMBER OF TIME STEPS =        10

                               MULTIPLIER FOR DELT =     1.200

                            INITIAL TIME STEP SIZE =   1.155682    

 WEL -- WELL PACKAGE, VERSION 7, 5/2/2005 INPUT READ FROM UNIT   12

 WELL NO.  CLN-NODE       STRESS FACTOR         C01             
 ---------------------------------------------------------------
        1            3      -5.000           0.000           0.000    

      1 WELL 
 -------------------------------------------------------------------------------------
 
 SOLVING FOR HEAD 

 Outer-Iteration  Inner-Iteration  Backtracking  Number of        Incoming       Outgoing  Maximum HeadChange      Maximum Head Change
     Number           Count           Flag       Backtracks       Residual       Residual           Value              Location
        1                             0             0          0.534531E-01     0.534531E-01
        1                5                                                                       -0.218197                   590           GWF-node number
        1                5                                                                       -0.863069E-01                 1           CLN-node number
        2                             0             0          0.284836E-14     0.284836E-14
        2                1                                                                        0.161455E-07               190           GWF-node number
        2                1                                                                        0.465617E-07                 3           CLN-node number


     2 CALLS TO SPARSE MATRIX SOLVER PACKAGE  IN FLOW TIME STEP       1 STRESS PERIOD       2

 TOTAL OF       2OUTER ITERATIONS
  MAXIMUM CHANGE FOR EACH ITERATION:
   MAX. CHANGE        NODE  MAX. CHANGE        NODE  MAX. CHANGE        NODE  MAX. CHANGE        NODE  MAX. CHANGE        NODE
 ------------------------------------------------------------------------------------------------------------------------------------
  -0.21820    ,        590  0.16146E-07,        190

  MAXIMUM CHANGE FOR CLN NODE AT EACH ITERATION:
   MAX. CHANGE    CLN-CELL  MAX. CHANGE    CLN-CELL  MAX. CHANGE    CLN-CELL  MAX. CHANGE    CLN-CELL  MAX. CHANGE    CLN-CELL
 ------------------------------------------------------------------------------------------------------------------------------------
  -0.86307E-01,          1  0.46562E-07,          3

 HEAD/DRAWDOWN PRINTOUT FLAG = 1     TOTAL BUDGET PRINTOUT FLAG = 1
 CELL-BY-CELL FLOW TERM FLAG = 1
 CONCENTRATION PRINTOUT FLAG = 1

 OUTPUT FLAGS FOR ALL LAYERS ARE THE SAME:
   HEAD    DRAWDOWN  HEAD  DRAWDOWN    CONC    CONC
 PRINTOUT  PRINTOUT  SAVE    SAVE    PRINTOUT  SAVE
 ---------------------------------------------------
     0         0       1       1       0       1
 UBUDSVU SAVING "         STORAGE" ON UNIT  50 AT TIME STEP      1, STRESS PERIOD      2
 UBUDSV SAVING "     CLN STORAGE" ON UNIT 144 AT TIME STEP      1, STRESS PERIOD       2
 UBUDSVU SAVING "   CONSTANT HEAD" ON UNIT  50 AT TIME STEP      1, STRESS PERIOD      2
 UBUDSVU SAVING "   FLOW JA FACE " ON UNIT  50 AT TIME STEP      1, STRESS PERIOD      2
 UBUDSVU SAVING "             CLN" ON UNIT  50 AT TIME STEP      1, STRESS PERIOD      2
 UBUDSVU SAVING "  CLN CONST HEAD" ON UNIT 144 AT TIME STEP      1, STRESS PERIOD      2
 UBUDSVU SAVING "   FLOW CLN FACE" ON UNIT 144 AT TIME STEP      1, STRESS PERIOD      2
 UBUDSVU SAVING "             GWF" ON UNIT 144 AT TIME STEP      1, STRESS PERIOD      2
 UBUDSVU SAVING "           WELLS" ON UNIT  50 AT TIME STEP      1, STRESS PERIOD      2
 UBUDSVU SAVING "           WELLS" ON UNIT 144 AT TIME STEP      1, STRESS PERIOD      2

 HEAD WILL BE SAVED ON UNIT       30 AT END OF TIME STEP        1, STRESS PERIOD        2

 DRAWDOWN WILL BE SAVED ON UNIT   31 AT END OF TIME STEP   1, STRESS PERIOD    2

 CLN HEAD WILL BE SAVED ON UNIT   77 AT END OF TIME STEP   1, STRESS PERIOD    2
1
  VOLUMETRIC BUDGET FOR ENTIRE MODEL AT END OF TIME STEP       1 IN STRESS PERIOD       2
  ---------------------------------------------------------------------------------------

     CUMULATIVE VOLUMES      L**3       RATES FOR THIS TIME STEP      L**3/T
     ------------------                 ------------------------

           IN:                                      IN:
           ---                                      ---
             STORAGE =         155.7784               STORAGE =           5.0000
         CLN STORAGE =           0.0000           CLN STORAGE =           0.0000
       CONSTANT HEAD =           0.0000         CONSTANT HEAD =           0.0000
      CLN CONST HEAD =           0.0000        CLN CONST HEAD =           0.0000
               WELLS =           0.0000                 WELLS =           0.0000

            TOTAL IN =         155.7784              TOTAL IN =           5.0000

          OUT:                                     OUT:
          ----                                     ----
             STORAGE =           0.0000               STORAGE =           0.0000
         CLN STORAGE =           0.0000           CLN STORAGE =           0.0000
       CONSTANT HEAD =           0.0000         CONSTANT HEAD =           0.0000
      CLN CONST HEAD =           0.0000        CLN CONST HEAD =           0.0000
               WELLS =         155.7784                 WELLS =           5.0000

           TOTAL OUT =         155.7784             TOTAL OUT =           5.0000

            IN - OUT =       2.2385E-06              IN - OUT =       6.7415E-08

 PERCENT DISCREPANCY =           0.00     PERCENT DISCREPANCY =           0.00






          TIME SUMMARY AT END OF TIME STEP         1 IN STRESS PERIOD         2
                    SECONDS     MINUTES      HOURS       DAYS        YEARS
                    -----------------------------------------------------------
   TIME STEP LENGTH  99851.      1664.2      27.736      1.1557     3.16409E-03
 STRESS PERIOD TIME  99851.      1664.2      27.736      1.1557     3.16409E-03
         TOTAL TIME 2.69185E+06  44864.      747.74      31.156     8.52996E-02
1
 ------------------------------------------------------------------------------------------------------------
 
 SOLVING FOR TRANSPORT 

 ------------------------------------------------------------------------------------------------------------------------
     1 CALLS TO SPARSE MATRIX SOLVER PACKAGE IN TRANSPORT TIME STEP       1 STRESS PERIOD       2 SPECIES  1

 TOTAL OF       1OUTER ITERATIONS
  MAXIMUM CHANGE FOR EACH ITERATION:
   MAX. CHANGE        NODE  MAX. CHANGE        NODE  MAX. CHANGE        NODE  MAX. CHANGE        NODE  MAX. CHANGE        NODE
 ------------------------------------------------------------------------------------------------------------------------------------
   0.21711E-11,        191

  MAXIMUM CHANGE FOR CLN NODE AT EACH ITERATION:
   MAX. CHANGE    CLN-CELL  MAX. CHANGE    CLN-CELL  MAX. CHANGE    CLN-CELL  MAX. CHANGE    CLN-CELL  MAX. CHANGE    CLN-CELL
 ------------------------------------------------------------------------------------------------------------------------------------
  -0.17005E-08,          2
     TRANSPORT SOLUTION COMPLETE FOR COMPONENT SPECIES NUMBER    1
     ------------------------------------------------------------
 UBUDSVU SAVING "    MASS STORAGE" ON UNIT 145 AT TIME STEP      1, STRESS PERIOD      2
 UBUDSVU SAVING "CLN MASS STORAGE" ON UNIT 145 AT TIME STEP      1, STRESS PERIOD      2
 UBUDSVU SAVING "CNST H MASS FLUX" ON UNIT 145 AT TIME STEP      1, STRESS PERIOD      2
 UBUDSVU SAVING "  WELL MASS FLUX" ON UNIT 145 AT TIME STEP      1, STRESS PERIOD      2

 TRANSPORT SOLUTION COMPLETE FOR ALL SPECIES, SORTING OUTPUT FOR CONCENTRATIONS AND MASS BALANCE
 ----------------------------------------------------------------------------------------------------
     TRANSPORT OUTPUT FOR COMPONENT SPECIES NUMBER    1
     ------------------------------------------------------------

 CONC WILL BE SAVED ON UNIT  132 AT END OF TIME STEP        1, STRESS PERIOD        2

 CLN CONC WILL BE SAVED ON UNIT  188 AT END OF TIME STEP   1, STRESS PERIOD    2
1
  VOLUMETRIC BUDGET FOR ENTIRE MODEL AT END OF TIME STEP       1 IN STRESS PERIOD       2
  ---------------------------------------------------------------------------------------

     CUMULATIVE VOLUMES      L**3       RATES FOR THIS TIME STEP      L**3/T
     ------------------                 ------------------------

           IN:                                      IN:
           ---                                      ---
        MASS STORAGE =          15.5778          MASS STORAGE =           0.5000
    CNST H MASS FLUX =           0.0000      CNST H MASS FLUX =           0.0000
      WELL MASS FLUX =           0.0000        WELL MASS FLUX =           0.0000

            TOTAL IN =          15.5778              TOTAL IN =           0.5000

          OUT:                                     OUT:
          ----                                     ----
        MASS STORAGE =           0.2827          MASS STORAGE =       4.9101E-10
    CNST H MASS FLUX =           0.0000      CNST H MASS FLUX =           0.0000
      WELL MASS FLUX =          15.2951        WELL MASS FLUX =           0.5000

           TOTAL OUT =          15.5778             TOTAL OUT =           0.5000

            IN - OUT =      -2.7082E-11              IN - OUT =      -4.9101E-10

 PERCENT DISCREPANCY =          -0.00     PERCENT DISCREPANCY =          -0.00






          TIME SUMMARY AT END OF TIME STEP         1 IN STRESS PERIOD         2
                    SECONDS     MINUTES      HOURS       DAYS        YEARS
                    -----------------------------------------------------------
   TIME STEP LENGTH  99851.      1664.2      27.736      1.1557     3.16409E-03
 STRESS PERIOD TIME  99851.      1664.2      27.736      1.1557     3.16409E-03
         TOTAL TIME 2.69185E+06  44864.      747.74      31.156     8.52996E-02
1
 -------------------------------------------------------------------------------------
 
 SOLVING FOR HEAD 

 Outer-Iteration  Inner-Iteration  Backtracking  Number of        Incoming       Outgoing  Maximum HeadChange      Maximum Head Change
     Number           Count           Flag       Backtracks       Residual       Residual           Value              Location
        1                             0             0          0.529612E-01     0.529612E-01
        1                5                                                                       -0.253043                   590           GWF-node number
        1                5                                                                       -0.998293E-01                 3           CLN-node number
        2                             0             0          0.217093E-14     0.217093E-14
        2                1                                                                       -0.509655E-07               190           GWF-node number
        2                1                                                                       -0.133556E-06                 2           CLN-node number
     2 CALLS TO SPARSE MATRIX SOLVER PACKAGE  IN FLOW TIME STEP       2 STRESS PERIOD       2

 TOTAL OF       2OUTER ITERATIONS
  MAXIMUM CHANGE FOR EACH ITERATION:
   MAX. CHANGE        NODE  MAX. CHANGE        NODE  MAX. CHANGE        NODE  MAX. CHANGE        NODE  MAX. CHANGE        NODE
 ------------------------------------------------------------------------------------------------------------------------------------
  -0.25304    ,        590 -0.50965E-07,        190

  MAXIMUM CHANGE FOR CLN NODE AT EACH ITERATION:
   MAX. CHANGE    CLN-CELL  MAX. CHANGE    CLN-CELL  MAX. CHANGE    CLN-CELL  MAX. CHANGE    CLN-CELL  MAX. CHANGE    CLN-CELL
 ------------------------------------------------------------------------------------------------------------------------------------
  -0.99829E-01,          3 -0.13356E-06,          2

 HEAD/DRAWDOWN PRINTOUT FLAG = 1     TOTAL BUDGET PRINTOUT FLAG = 1
 CELL-BY-CELL FLOW TERM FLAG = 1
 CONCENTRATION PRINTOUT FLAG = 1

 OUTPUT FLAGS FOR ALL LAYERS ARE THE SAME:
   HEAD    DRAWDOWN  HEAD  DRAWDOWN    CONC    CONC
 PRINTOUT  PRINTOUT  SAVE    SAVE    PRINTOUT  SAVE
 ---------------------------------------------------
     0         0       1       1       0       1
 UBUDSVU SAVING "         STORAGE" ON UNIT  50 AT TIME STEP      2, STRESS PERIOD      2
 UBUDSV SAVING "     CLN STORAGE" ON UNIT 144 AT TIME STEP      2, STRESS PERIOD       2
 UBUDSVU SAVING "   CONSTANT HEAD" ON UNIT  50 AT TIME STEP      2, STRESS PERIOD      2
 UBUDSVU SAVING "   FLOW JA FACE " ON UNIT  50 AT TIME STEP      2, STRESS PERIOD      2
 UBUDSVU SAVING "             CLN" ON UNIT  50 AT TIME STEP      2, STRESS PERIOD      2
 UBUDSVU SAVING "  CLN CONST HEAD" ON UNIT 144 AT TIME STEP      2, STRESS PERIOD      2
 UBUDSVU SAVING "   FLOW CLN FACE" ON UNIT 144 AT TIME STEP      2, STRESS PERIOD      2
 UBUDSVU SAVING "             GWF" ON UNIT 144 AT TIME STEP      2, STRESS PERIOD      2
 UBUDSVU SAVING "           WELLS" ON UNIT  50 AT TIME STEP      2, STRESS PERIOD      2
 UBUDSVU SAVING "           WELLS" ON UNIT 144 AT TIME STEP      2, STRESS PERIOD      2

 HEAD WILL BE SAVED ON UNIT       30 AT END OF TIME STEP        2, STRESS PERIOD        2

 DRAWDOWN WILL BE SAVED ON UNIT   31 AT END OF TIME STEP   2, STRESS PERIOD    2

 CLN HEAD WILL BE SAVED ON UNIT   77 AT END OF TIME STEP   2, STRESS PERIOD    2
1
  VOLUMETRIC BUDGET FOR ENTIRE MODEL AT END OF TIME STEP       2 IN STRESS PERIOD       2
  ---------------------------------------------------------------------------------------

     CUMULATIVE VOLUMES      L**3       RATES FOR THIS TIME STEP      L**3/T
     ------------------                 ------------------------

           IN:                                      IN:
           ---                                      ---
             STORAGE =         162.7125               STORAGE =           5.0000
         CLN STORAGE =           0.0000           CLN STORAGE =           0.0000
       CONSTANT HEAD =           0.0000         CONSTANT HEAD =           0.0000
      CLN CONST HEAD =           0.0000        CLN CONST HEAD =           0.0000
               WELLS =           0.0000                 WELLS =           0.0000

            TOTAL IN =         162.7125              TOTAL IN =           5.0000

          OUT:                                     OUT:
          ----                                     ----
             STORAGE =           0.0000               STORAGE =           0.0000
         CLN STORAGE =           0.0000           CLN STORAGE =           0.0000
       CONSTANT HEAD =           0.0000         CONSTANT HEAD =           0.0000
      CLN CONST HEAD =           0.0000        CLN CONST HEAD =           0.0000
               WELLS =         162.7125                 WELLS =           5.0000

           TOTAL OUT =         162.7125             TOTAL OUT =           5.0000

            IN - OUT =       2.3142E-06              IN - OUT =       5.4652E-08

 PERCENT DISCREPANCY =           0.00     PERCENT DISCREPANCY =           0.00






          TIME SUMMARY AT END OF TIME STEP         2 IN STRESS PERIOD         2
                    SECONDS     MINUTES      HOURS       DAYS        YEARS
                    -----------------------------------------------------------
   TIME STEP LENGTH 1.19821E+05  1997.0      33.284      1.3868     3.79690E-03
 STRESS PERIOD TIME 2.19672E+05  3661.2      61.020      2.5425     6.96099E-03
         TOTAL TIME 2.81167E+06  46861.      781.02      32.542     8.90965E-02
1
 ------------------------------------------------------------------------------------------------------------
 
 SOLVING FOR TRANSPORT 

 ------------------------------------------------------------------------------------------------------------------------
     1 CALLS TO SPARSE MATRIX SOLVER PACKAGE IN TRANSPORT TIME STEP       2 STRESS PERIOD       2 SPECIES  1

 TOTAL OF       1OUTER ITERATIONS
  MAXIMUM CHANGE FOR EACH ITERATION:
   MAX. CHANGE        NODE  MAX. CHANGE        NODE  MAX. CHANGE        NODE  MAX. CHANGE        NODE  MAX. CHANGE        NODE
 ------------------------------------------------------------------------------------------------------------------------------------
  -0.64352E-11,        191

  MAXIMUM CHANGE FOR CLN NODE AT EACH ITERATION:
   MAX. CHANGE    CLN-CELL  MAX. CHANGE    CLN-CELL  MAX. CHANGE    CLN-CELL  MAX. CHANGE    CLN-CELL  MAX. CHANGE    CLN-CELL
 ------------------------------------------------------------------------------------------------------------------------------------
   0.95560E-09,          2
     TRANSPORT SOLUTION COMPLETE FOR COMPONENT SPECIES NUMBER    1
     ------------------------------------------------------------
 UBUDSVU SAVING "    MASS STORAGE" ON UNIT 145 AT TIME STEP      2, STRESS PERIOD      2
 UBUDSVU SAVING "CLN MASS STORAGE" ON UNIT 145 AT TIME STEP      2, STRESS PERIOD      2
 UBUDSVU SAVING "CNST H MASS FLUX" ON UNIT 145 AT TIME STEP      2, STRESS PERIOD      2
 UBUDSVU SAVING "  WELL MASS FLUX" ON UNIT 145 AT TIME STEP      2, STRESS PERIOD      2

 TRANSPORT SOLUTION COMPLETE FOR ALL SPECIES, SORTING OUTPUT FOR CONCENTRATIONS AND MASS BALANCE
 ----------------------------------------------------------------------------------------------------
     TRANSPORT OUTPUT FOR COMPONENT SPECIES NUMBER    1
     ------------------------------------------------------------

 CONC WILL BE SAVED ON UNIT  132 AT END OF TIME STEP        2, STRESS PERIOD        2

 CLN CONC WILL BE SAVED ON UNIT  188 AT END OF TIME STEP   2, STRESS PERIOD    2
1
  VOLUMETRIC BUDGET FOR ENTIRE MODEL AT END OF TIME STEP       2 IN STRESS PERIOD       2
  ---------------------------------------------------------------------------------------

     CUMULATIVE VOLUMES      L**3       RATES FOR THIS TIME STEP      L**3/T
     ------------------                 ------------------------

           IN:                                      IN:
           ---                                      ---
        MASS STORAGE =          16.2713          MASS STORAGE =           0.5000
    CNST H MASS FLUX =           0.0000      CNST H MASS FLUX =           0.0000
      WELL MASS FLUX =           0.0000        WELL MASS FLUX =           0.0000

            TOTAL IN =          16.2713              TOTAL IN =           0.5000

          OUT:                                     OUT:
          ----                                     ----
        MASS STORAGE =           0.2827          MASS STORAGE =       2.6018E-10
    CNST H MASS FLUX =           0.0000      CNST H MASS FLUX =           0.0000
      WELL MASS FLUX =          15.9885        WELL MASS FLUX =           0.5000

           TOTAL OUT =          16.2713             TOTAL OUT =           0.5000

            IN - OUT =      -2.7505E-11              IN - OUT =      -2.6018E-10

 PERCENT DISCREPANCY =          -0.00     PERCENT DISCREPANCY =          -0.00






          TIME SUMMARY AT END OF TIME STEP         2 IN STRESS PERIOD         2
                    SECONDS     MINUTES      HOURS       DAYS        YEARS
                    -----------------------------------------------------------
   TIME STEP LENGTH 1.19821E+05  1997.0      33.284      1.3868     3.79690E-03
 STRESS PERIOD TIME 2.19672E+05  3661.2      61.020      2.5425     6.96099E-03
         TOTAL TIME 2.81167E+06  46861.      781.02      32.542     8.90965E-02
1
 -------------------------------------------------------------------------------------
 
 SOLVING FOR HEAD 

 Outer-Iteration  Inner-Iteration  Backtracking  Number of        Incoming       Outgoing  Maximum HeadChange      Maximum Head Change
     Number           Count           Flag       Backtracks       Residual       Residual           Value              Location
        1                             0             0          0.524603E-01     0.524603E-01
        1                5                                                                       -0.291497                   590           GWF-node number
        1                5                                                                       -0.115265                     1           CLN-node number
        2                             0             0          0.947111E-14     0.947111E-14
        2                1                                                                        0.906466E-07               190           GWF-node number
        2                1                                                                        0.259769E-06                 3           CLN-node number
     2 CALLS TO SPARSE MATRIX SOLVER PACKAGE  IN FLOW TIME STEP       3 STRESS PERIOD       2

 TOTAL OF       2OUTER ITERATIONS
  MAXIMUM CHANGE FOR EACH ITERATION:
   MAX. CHANGE        NODE  MAX. CHANGE        NODE  MAX. CHANGE        NODE  MAX. CHANGE        NODE  MAX. CHANGE        NODE
 ------------------------------------------------------------------------------------------------------------------------------------
  -0.29150    ,        590  0.90647E-07,        190

  MAXIMUM CHANGE FOR CLN NODE AT EACH ITERATION:
   MAX. CHANGE    CLN-CELL  MAX. CHANGE    CLN-CELL  MAX. CHANGE    CLN-CELL  MAX. CHANGE    CLN-CELL  MAX. CHANGE    CLN-CELL
 ------------------------------------------------------------------------------------------------------------------------------------
  -0.11526    ,          1  0.25977E-06,          3

 HEAD/DRAWDOWN PRINTOUT FLAG = 1     TOTAL BUDGET PRINTOUT FLAG = 1
 CELL-BY-CELL FLOW TERM FLAG = 1
 CONCENTRATION PRINTOUT FLAG = 1

 OUTPUT FLAGS FOR ALL LAYERS ARE THE SAME:
   HEAD    DRAWDOWN  HEAD  DRAWDOWN    CONC    CONC
 PRINTOUT  PRINTOUT  SAVE    SAVE    PRINTOUT  SAVE
 ---------------------------------------------------
     0         0       1       1       0       1
 UBUDSVU SAVING "         STORAGE" ON UNIT  50 AT TIME STEP      3, STRESS PERIOD      2
 UBUDSV SAVING "     CLN STORAGE" ON UNIT 144 AT TIME STEP      3, STRESS PERIOD       2
 UBUDSVU SAVING "   CONSTANT HEAD" ON UNIT  50 AT TIME STEP      3, STRESS PERIOD      2
 UBUDSVU SAVING "   FLOW JA FACE " ON UNIT  50 AT TIME STEP      3, STRESS PERIOD      2
 UBUDSVU SAVING "             CLN" ON UNIT  50 AT TIME STEP      3, STRESS PERIOD      2
 UBUDSVU SAVING "  CLN CONST HEAD" ON UNIT 144 AT TIME STEP      3, STRESS PERIOD      2
 UBUDSVU SAVING "   FLOW CLN FACE" ON UNIT 144 AT TIME STEP      3, STRESS PERIOD      2
 UBUDSVU SAVING "             GWF" ON UNIT 144 AT TIME STEP      3, STRESS PERIOD      2
 UBUDSVU SAVING "           WELLS" ON UNIT  50 AT TIME STEP      3, STRESS PERIOD      2
 UBUDSVU SAVING "           WELLS" ON UNIT 144 AT TIME STEP      3, STRESS PERIOD      2

 HEAD WILL BE SAVED ON UNIT       30 AT END OF TIME STEP        3, STRESS PERIOD        2

 DRAWDOWN WILL BE SAVED ON UNIT   31 AT END OF TIME STEP   3, STRESS PERIOD    2

 CLN HEAD WILL BE SAVED ON UNIT   77 AT END OF TIME STEP   3, STRESS PERIOD    2
1
  VOLUMETRIC BUDGET FOR ENTIRE MODEL AT END OF TIME STEP       3 IN STRESS PERIOD       2
  ---------------------------------------------------------------------------------------

     CUMULATIVE VOLUMES      L**3       RATES FOR THIS TIME STEP      L**3/T
     ------------------                 ------------------------

           IN:                                      IN:
           ---                                      ---
             STORAGE =         171.0334               STORAGE =           5.0000
         CLN STORAGE =           0.0000           CLN STORAGE =           0.0000
       CONSTANT HEAD =           0.0000         CONSTANT HEAD =           0.0000
      CLN CONST HEAD =           0.0000        CLN CONST HEAD =           0.0000
               WELLS =           0.0000                 WELLS =           0.0000

            TOTAL IN =         171.0334              TOTAL IN =           5.0000

          OUT:                                     OUT:
          ----                                     ----
             STORAGE =           0.0000               STORAGE =           0.0000
         CLN STORAGE =           0.0000           CLN STORAGE =           0.0000
       CONSTANT HEAD =           0.0000         CONSTANT HEAD =           0.0000
      CLN CONST HEAD =           0.0000        CLN CONST HEAD =           0.0000
               WELLS =         171.0334                 WELLS =           5.0000

           TOTAL OUT =         171.0334             TOTAL OUT =           5.0000

            IN - OUT =       2.4103E-06              IN - OUT =       5.7689E-08

 PERCENT DISCREPANCY =           0.00     PERCENT DISCREPANCY =           0.00






          TIME SUMMARY AT END OF TIME STEP         3 IN STRESS PERIOD         2
                    SECONDS     MINUTES      HOURS       DAYS        YEARS
                    -----------------------------------------------------------
   TIME STEP LENGTH 1.43785E+05  2396.4      39.940      1.6642     4.55628E-03
 STRESS PERIOD TIME 3.63458E+05  6057.6      100.96      4.2067     1.15173E-02
         TOTAL TIME 2.95546E+06  49258.      820.96      34.207     9.36528E-02
1
 ------------------------------------------------------------------------------------------------------------
 
 SOLVING FOR TRANSPORT 

 ------------------------------------------------------------------------------------------------------------------------
     1 CALLS TO SPARSE MATRIX SOLVER PACKAGE IN TRANSPORT TIME STEP       3 STRESS PERIOD       2 SPECIES  1

 TOTAL OF       1OUTER ITERATIONS
  MAXIMUM CHANGE FOR EACH ITERATION:
   MAX. CHANGE        NODE  MAX. CHANGE        NODE  MAX. CHANGE        NODE  MAX. CHANGE        NODE  MAX. CHANGE        NODE
 ------------------------------------------------------------------------------------------------------------------------------------
   0.16579E-10,        191

  MAXIMUM CHANGE FOR CLN NODE AT EACH ITERATION:
   MAX. CHANGE    CLN-CELL  MAX. CHANGE    CLN-CELL  MAX. CHANGE    CLN-CELL  MAX. CHANGE    CLN-CELL  MAX. CHANGE    CLN-CELL
 ------------------------------------------------------------------------------------------------------------------------------------
  -0.26768E-08,          2
     TRANSPORT SOLUTION COMPLETE FOR COMPONENT SPECIES NUMBER    1
     ------------------------------------------------------------
 UBUDSVU SAVING "    MASS STORAGE" ON UNIT 145 AT TIME STEP      3, STRESS PERIOD      2
 UBUDSVU SAVING "CLN MASS STORAGE" ON UNIT 145 AT TIME STEP      3, STRESS PERIOD      2
 UBUDSVU SAVING "CNST H MASS FLUX" ON UNIT 145 AT TIME STEP      3, STRESS PERIOD      2
 UBUDSVU SAVING "  WELL MASS FLUX" ON UNIT 145 AT TIME STEP      3, STRESS PERIOD      2

 TRANSPORT SOLUTION COMPLETE FOR ALL SPECIES, SORTING OUTPUT FOR CONCENTRATIONS AND MASS BALANCE
 ----------------------------------------------------------------------------------------------------
     TRANSPORT OUTPUT FOR COMPONENT SPECIES NUMBER    1
     ------------------------------------------------------------

 CONC WILL BE SAVED ON UNIT  132 AT END OF TIME STEP        3, STRESS PERIOD        2

 CLN CONC WILL BE SAVED ON UNIT  188 AT END OF TIME STEP   3, STRESS PERIOD    2
1
  VOLUMETRIC BUDGET FOR ENTIRE MODEL AT END OF TIME STEP       3 IN STRESS PERIOD       2
  ---------------------------------------------------------------------------------------

     CUMULATIVE VOLUMES      L**3       RATES FOR THIS TIME STEP      L**3/T
     ------------------                 ------------------------

           IN:                                      IN:
           ---                                      ---
        MASS STORAGE =          17.1033          MASS STORAGE =           0.5000
    CNST H MASS FLUX =           0.0000      CNST H MASS FLUX =           0.0000
      WELL MASS FLUX =           0.0000        WELL MASS FLUX =           0.0000

            TOTAL IN =          17.1033              TOTAL IN =           0.5000

          OUT:                                     OUT:
          ----                                     ----
        MASS STORAGE =           0.2827          MASS STORAGE =       1.7066E-10
    CNST H MASS FLUX =           0.0000      CNST H MASS FLUX =           0.0000
      WELL MASS FLUX =          16.8206        WELL MASS FLUX =           0.5000

           TOTAL OUT =          17.1033             TOTAL OUT =           0.5000

            IN - OUT =      -2.5469E-11              IN - OUT =      -1.7066E-10

 PERCENT DISCREPANCY =          -0.00     PERCENT DISCREPANCY =          -0.00






          TIME SUMMARY AT END OF TIME STEP         3 IN STRESS PERIOD         2
                    SECONDS     MINUTES      HOURS       DAYS        YEARS
                    -----------------------------------------------------------
   TIME STEP LENGTH 1.43785E+05  2396.4      39.940      1.6642     4.55628E-03
 STRESS PERIOD TIME 3.63458E+05  6057.6      100.96      4.2067     1.15173E-02
         TOTAL TIME 2.95546E+06  49258.      820.96      34.207     9.36528E-02
1
 -------------------------------------------------------------------------------------
 
 SOLVING FOR HEAD 

 Outer-Iteration  Inner-Iteration  Backtracking  Number of        Incoming       Outgoing  Maximum HeadChange      Maximum Head Change
     Number           Count           Flag       Backtracks       Residual       Residual           Value              Location
        1                             0             0          0.519582E-01     0.519582E-01
        1                6                                                                       -0.333190                   590           GWF-node number
        1                6                                                                       -0.132948                     1           CLN-node number
        2                             0             0          0.193711E-13     0.193711E-13
        2                1                                                                        0.124067E-06               190           GWF-node number
        2                1                                                                        0.324640E-06                 3           CLN-node number
     2 CALLS TO SPARSE MATRIX SOLVER PACKAGE  IN FLOW TIME STEP       4 STRESS PERIOD       2

 TOTAL OF       2OUTER ITERATIONS
  MAXIMUM CHANGE FOR EACH ITERATION:
   MAX. CHANGE        NODE  MAX. CHANGE        NODE  MAX. CHANGE        NODE  MAX. CHANGE        NODE  MAX. CHANGE        NODE
 ------------------------------------------------------------------------------------------------------------------------------------
  -0.33319    ,        590  0.12407E-06,        190

  MAXIMUM CHANGE FOR CLN NODE AT EACH ITERATION:
   MAX. CHANGE    CLN-CELL  MAX. CHANGE    CLN-CELL  MAX. CHANGE    CLN-CELL  MAX. CHANGE    CLN-CELL  MAX. CHANGE    CLN-CELL
 ------------------------------------------------------------------------------------------------------------------------------------
  -0.13295    ,          1  0.32464E-06,          3

 HEAD/DRAWDOWN PRINTOUT FLAG = 1     TOTAL BUDGET PRINTOUT FLAG = 1
 CELL-BY-CELL FLOW TERM FLAG = 1
 CONCENTRATION PRINTOUT FLAG = 1

 OUTPUT FLAGS FOR ALL LAYERS ARE THE SAME:
   HEAD    DRAWDOWN  HEAD  DRAWDOWN    CONC    CONC
 PRINTOUT  PRINTOUT  SAVE    SAVE    PRINTOUT  SAVE
 ---------------------------------------------------
     0         0       1       1       0       1
 UBUDSVU SAVING "         STORAGE" ON UNIT  50 AT TIME STEP      4, STRESS PERIOD      2
 UBUDSV SAVING "     CLN STORAGE" ON UNIT 144 AT TIME STEP      4, STRESS PERIOD       2
 UBUDSVU SAVING "   CONSTANT HEAD" ON UNIT  50 AT TIME STEP      4, STRESS PERIOD      2
 UBUDSVU SAVING "   FLOW JA FACE " ON UNIT  50 AT TIME STEP      4, STRESS PERIOD      2
 UBUDSVU SAVING "             CLN" ON UNIT  50 AT TIME STEP      4, STRESS PERIOD      2
 UBUDSVU SAVING "  CLN CONST HEAD" ON UNIT 144 AT TIME STEP      4, STRESS PERIOD      2
 UBUDSVU SAVING "   FLOW CLN FACE" ON UNIT 144 AT TIME STEP      4, STRESS PERIOD      2
 UBUDSVU SAVING "             GWF" ON UNIT 144 AT TIME STEP      4, STRESS PERIOD      2
 UBUDSVU SAVING "           WELLS" ON UNIT  50 AT TIME STEP      4, STRESS PERIOD      2
 UBUDSVU SAVING "           WELLS" ON UNIT 144 AT TIME STEP      4, STRESS PERIOD      2

 HEAD WILL BE SAVED ON UNIT       30 AT END OF TIME STEP        4, STRESS PERIOD        2

 DRAWDOWN WILL BE SAVED ON UNIT   31 AT END OF TIME STEP   4, STRESS PERIOD    2

 CLN HEAD WILL BE SAVED ON UNIT   77 AT END OF TIME STEP   4, STRESS PERIOD    2
1
  VOLUMETRIC BUDGET FOR ENTIRE MODEL AT END OF TIME STEP       4 IN STRESS PERIOD       2
  ---------------------------------------------------------------------------------------

     CUMULATIVE VOLUMES      L**3       RATES FOR THIS TIME STEP      L**3/T
     ------------------                 ------------------------

           IN:                                      IN:
           ---                                      ---
             STORAGE =         181.0185               STORAGE =           5.0000
         CLN STORAGE =           0.0000           CLN STORAGE =           0.0000
       CONSTANT HEAD =           0.0000         CONSTANT HEAD =           0.0000
      CLN CONST HEAD =           0.0000        CLN CONST HEAD =           0.0000
               WELLS =           0.0000                 WELLS =           0.0000

            TOTAL IN =         181.0185              TOTAL IN =           5.0000

          OUT:                                     OUT:
          ----                                     ----
             STORAGE =           0.0000               STORAGE =           0.0000
         CLN STORAGE =           0.0000           CLN STORAGE =           0.0000
       CONSTANT HEAD =           0.0000         CONSTANT HEAD =           0.0000
      CLN CONST HEAD =           0.0000        CLN CONST HEAD =           0.0000
               WELLS =         181.0185                 WELLS =           5.0000

           TOTAL OUT =         181.0185             TOTAL OUT =           5.0000

            IN - OUT =       2.6305E-06              IN - OUT =       1.1029E-07

 PERCENT DISCREPANCY =           0.00     PERCENT DISCREPANCY =           0.00






          TIME SUMMARY AT END OF TIME STEP         4 IN STRESS PERIOD         2
                    SECONDS     MINUTES      HOURS       DAYS        YEARS
                    -----------------------------------------------------------
   TIME STEP LENGTH 1.72542E+05  2875.7      47.928      1.9970     5.46754E-03
 STRESS PERIOD TIME 5.36000E+05  8933.3      148.89      6.2037     1.69848E-02
         TOTAL TIME 3.12800E+06  52133.      868.89      36.204     9.91203E-02
1
 ------------------------------------------------------------------------------------------------------------
 
 SOLVING FOR TRANSPORT 

 ------------------------------------------------------------------------------------------------------------------------
     1 CALLS TO SPARSE MATRIX SOLVER PACKAGE IN TRANSPORT TIME STEP       4 STRESS PERIOD       2 SPECIES  1

 TOTAL OF       1OUTER ITERATIONS
  MAXIMUM CHANGE FOR EACH ITERATION:
   MAX. CHANGE        NODE  MAX. CHANGE        NODE  MAX. CHANGE        NODE  MAX. CHANGE        NODE  MAX. CHANGE        NODE
 ------------------------------------------------------------------------------------------------------------------------------------
   0.25155E-10,        191

  MAXIMUM CHANGE FOR CLN NODE AT EACH ITERATION:
   MAX. CHANGE    CLN-CELL  MAX. CHANGE    CLN-CELL  MAX. CHANGE    CLN-CELL  MAX. CHANGE    CLN-CELL  MAX. CHANGE    CLN-CELL
 ------------------------------------------------------------------------------------------------------------------------------------
   0.20657E-08,          2
     TRANSPORT SOLUTION COMPLETE FOR COMPONENT SPECIES NUMBER    1
     ------------------------------------------------------------
 UBUDSVU SAVING "    MASS STORAGE" ON UNIT 145 AT TIME STEP      4, STRESS PERIOD      2
 UBUDSVU SAVING "CLN MASS STORAGE" ON UNIT 145 AT TIME STEP      4, STRESS PERIOD      2
 UBUDSVU SAVING "CNST H MASS FLUX" ON UNIT 145 AT TIME STEP      4, STRESS PERIOD      2
 UBUDSVU SAVING "  WELL MASS FLUX" ON UNIT 145 AT TIME STEP      4, STRESS PERIOD      2

 TRANSPORT SOLUTION COMPLETE FOR ALL SPECIES, SORTING OUTPUT FOR CONCENTRATIONS AND MASS BALANCE
 ----------------------------------------------------------------------------------------------------
     TRANSPORT OUTPUT FOR COMPONENT SPECIES NUMBER    1
     ------------------------------------------------------------

 CONC WILL BE SAVED ON UNIT  132 AT END OF TIME STEP        4, STRESS PERIOD        2

 CLN CONC WILL BE SAVED ON UNIT  188 AT END OF TIME STEP   4, STRESS PERIOD    2
1
  VOLUMETRIC BUDGET FOR ENTIRE MODEL AT END OF TIME STEP       4 IN STRESS PERIOD       2
  ---------------------------------------------------------------------------------------

     CUMULATIVE VOLUMES      L**3       RATES FOR THIS TIME STEP      L**3/T
     ------------------                 ------------------------

           IN:                                      IN:
           ---                                      ---
        MASS STORAGE =          18.1019          MASS STORAGE =           0.5000
    CNST H MASS FLUX =           0.0000      CNST H MASS FLUX =           0.0000
      WELL MASS FLUX =           0.0000        WELL MASS FLUX =           0.0000

            TOTAL IN =          18.1019              TOTAL IN =           0.5000

          OUT:                                     OUT:
          ----                                     ----
        MASS STORAGE =           0.2827          MASS STORAGE =       5.4282E-10
    CNST H MASS FLUX =           0.0000      CNST H MASS FLUX =           0.0000
      WELL MASS FLUX =          17.8191        WELL MASS FLUX =           0.5000

           TOTAL OUT =          18.1019             TOTAL OUT =           0.5000

            IN - OUT =      -2.0123E-11              IN - OUT =      -5.4282E-10

 PERCENT DISCREPANCY =          -0.00     PERCENT DISCREPANCY =          -0.00






          TIME SUMMARY AT END OF TIME STEP         4 IN STRESS PERIOD         2
                    SECONDS     MINUTES      HOURS       DAYS        YEARS
                    -----------------------------------------------------------
   TIME STEP LENGTH 1.72542E+05  2875.7      47.928      1.9970     5.46754E-03
 STRESS PERIOD TIME 5.36000E+05  8933.3      148.89      6.2037     1.69848E-02
         TOTAL TIME 3.12800E+06  52133.      868.89      36.204     9.91203E-02
1
 -------------------------------------------------------------------------------------
 
 SOLVING FOR HEAD 

 Outer-Iteration  Inner-Iteration  Backtracking  Number of        Incoming       Outgoing  Maximum HeadChange      Maximum Head Change
     Number           Count           Flag       Backtracks       Residual       Residual           Value              Location
        1                             0             0          0.514616E-01     0.514616E-01
        1                6                                                                       -0.377458                   590           GWF-node number
        1                6                                                                       -0.153328                     3           CLN-node number
        2                             0             0          0.156458E-14     0.156458E-14
        2                1                                                                        0.354502E-07               190           GWF-node number
        2                1                                                                        0.928549E-07                 3           CLN-node number
     2 CALLS TO SPARSE MATRIX SOLVER PACKAGE  IN FLOW TIME STEP       5 STRESS PERIOD       2

 TOTAL OF       2OUTER ITERATIONS
  MAXIMUM CHANGE FOR EACH ITERATION:
   MAX. CHANGE        NODE  MAX. CHANGE        NODE  MAX. CHANGE        NODE  MAX. CHANGE        NODE  MAX. CHANGE        NODE
 ------------------------------------------------------------------------------------------------------------------------------------
  -0.37746    ,        590  0.35450E-07,        190

  MAXIMUM CHANGE FOR CLN NODE AT EACH ITERATION:
   MAX. CHANGE    CLN-CELL  MAX. CHANGE    CLN-CELL  MAX. CHANGE    CLN-CELL  MAX. CHANGE    CLN-CELL  MAX. CHANGE    CLN-CELL
 ------------------------------------------------------------------------------------------------------------------------------------
  -0.15333    ,          3  0.92855E-07,          3

 HEAD/DRAWDOWN PRINTOUT FLAG = 1     TOTAL BUDGET PRINTOUT FLAG = 1
 CELL-BY-CELL FLOW TERM FLAG = 1
 CONCENTRATION PRINTOUT FLAG = 1

 OUTPUT FLAGS FOR ALL LAYERS ARE THE SAME:
   HEAD    DRAWDOWN  HEAD  DRAWDOWN    CONC    CONC
 PRINTOUT  PRINTOUT  SAVE    SAVE    PRINTOUT  SAVE
 ---------------------------------------------------
     0         0       1       1       0       1
 UBUDSVU SAVING "         STORAGE" ON UNIT  50 AT TIME STEP      5, STRESS PERIOD      2
 UBUDSV SAVING "     CLN STORAGE" ON UNIT 144 AT TIME STEP      5, STRESS PERIOD       2
 UBUDSVU SAVING "   CONSTANT HEAD" ON UNIT  50 AT TIME STEP      5, STRESS PERIOD      2
 UBUDSVU SAVING "   FLOW JA FACE " ON UNIT  50 AT TIME STEP      5, STRESS PERIOD      2
 UBUDSVU SAVING "             CLN" ON UNIT  50 AT TIME STEP      5, STRESS PERIOD      2
 UBUDSVU SAVING "  CLN CONST HEAD" ON UNIT 144 AT TIME STEP      5, STRESS PERIOD      2
 UBUDSVU SAVING "   FLOW CLN FACE" ON UNIT 144 AT TIME STEP      5, STRESS PERIOD      2
 UBUDSVU SAVING "             GWF" ON UNIT 144 AT TIME STEP      5, STRESS PERIOD      2
 UBUDSVU SAVING "           WELLS" ON UNIT  50 AT TIME STEP      5, STRESS PERIOD      2
 UBUDSVU SAVING "           WELLS" ON UNIT 144 AT TIME STEP      5, STRESS PERIOD      2

 HEAD WILL BE SAVED ON UNIT       30 AT END OF TIME STEP        5, STRESS PERIOD        2

 DRAWDOWN WILL BE SAVED ON UNIT   31 AT END OF TIME STEP   5, STRESS PERIOD    2

 CLN HEAD WILL BE SAVED ON UNIT   77 AT END OF TIME STEP   5, STRESS PERIOD    2
1
  VOLUMETRIC BUDGET FOR ENTIRE MODEL AT END OF TIME STEP       5 IN STRESS PERIOD       2
  ---------------------------------------------------------------------------------------

     CUMULATIVE VOLUMES      L**3       RATES FOR THIS TIME STEP      L**3/T
     ------------------                 ------------------------

           IN:                                      IN:
           ---                                      ---
             STORAGE =         193.0006               STORAGE =           5.0000
         CLN STORAGE =           0.0000           CLN STORAGE =           0.0000
       CONSTANT HEAD =           0.0000         CONSTANT HEAD =           0.0000
      CLN CONST HEAD =           0.0000        CLN CONST HEAD =           0.0000
               WELLS =           0.0000                 WELLS =           0.0000

            TOTAL IN =         193.0006              TOTAL IN =           5.0000

          OUT:                                     OUT:
          ----                                     ----
             STORAGE =           0.0000               STORAGE =           0.0000
         CLN STORAGE =           0.0000           CLN STORAGE =           0.0000
       CONSTANT HEAD =           0.0000         CONSTANT HEAD =           0.0000
      CLN CONST HEAD =           0.0000        CLN CONST HEAD =           0.0000
               WELLS =         193.0006                 WELLS =           5.0000

           TOTAL OUT =         193.0006             TOTAL OUT =           5.0000

            IN - OUT =       2.7066E-06              IN - OUT =       3.1758E-08

 PERCENT DISCREPANCY =           0.00     PERCENT DISCREPANCY =           0.00






          TIME SUMMARY AT END OF TIME STEP         5 IN STRESS PERIOD         2
                    SECONDS     MINUTES      HOURS       DAYS        YEARS
                    -----------------------------------------------------------
   TIME STEP LENGTH 2.07051E+05  3450.8      57.514      2.3964     6.56105E-03
 STRESS PERIOD TIME 7.43051E+05  12384.      206.40      8.6001     2.35459E-02
         TOTAL TIME 3.33505E+06  55584.      926.40      38.600     0.10568    
1
 ------------------------------------------------------------------------------------------------------------
 
 SOLVING FOR TRANSPORT 

 ------------------------------------------------------------------------------------------------------------------------
     1 CALLS TO SPARSE MATRIX SOLVER PACKAGE IN TRANSPORT TIME STEP       5 STRESS PERIOD       2 SPECIES  1

 TOTAL OF       1OUTER ITERATIONS
  MAXIMUM CHANGE FOR EACH ITERATION:
   MAX. CHANGE        NODE  MAX. CHANGE        NODE  MAX. CHANGE        NODE  MAX. CHANGE        NODE  MAX. CHANGE        NODE
 ------------------------------------------------------------------------------------------------------------------------------------
   0.87907E-11,        191

  MAXIMUM CHANGE FOR CLN NODE AT EACH ITERATION:
   MAX. CHANGE    CLN-CELL  MAX. CHANGE    CLN-CELL  MAX. CHANGE    CLN-CELL  MAX. CHANGE    CLN-CELL  MAX. CHANGE    CLN-CELL
 ------------------------------------------------------------------------------------------------------------------------------------
  -0.19138E-08,          2
     TRANSPORT SOLUTION COMPLETE FOR COMPONENT SPECIES NUMBER    1
     ------------------------------------------------------------
 UBUDSVU SAVING "    MASS STORAGE" ON UNIT 145 AT TIME STEP      5, STRESS PERIOD      2
 UBUDSVU SAVING "CLN MASS STORAGE" ON UNIT 145 AT TIME STEP      5, STRESS PERIOD      2
 UBUDSVU SAVING "CNST H MASS FLUX" ON UNIT 145 AT TIME STEP      5, STRESS PERIOD      2
 UBUDSVU SAVING "  WELL MASS FLUX" ON UNIT 145 AT TIME STEP      5, STRESS PERIOD      2

 TRANSPORT SOLUTION COMPLETE FOR ALL SPECIES, SORTING OUTPUT FOR CONCENTRATIONS AND MASS BALANCE
 ----------------------------------------------------------------------------------------------------
     TRANSPORT OUTPUT FOR COMPONENT SPECIES NUMBER    1
     ------------------------------------------------------------

 CONC WILL BE SAVED ON UNIT  132 AT END OF TIME STEP        5, STRESS PERIOD        2

 CLN CONC WILL BE SAVED ON UNIT  188 AT END OF TIME STEP   5, STRESS PERIOD    2
1
  VOLUMETRIC BUDGET FOR ENTIRE MODEL AT END OF TIME STEP       5 IN STRESS PERIOD       2
  ---------------------------------------------------------------------------------------

     CUMULATIVE VOLUMES      L**3       RATES FOR THIS TIME STEP      L**3/T
     ------------------                 ------------------------

           IN:                                      IN:
           ---                                      ---
        MASS STORAGE =          19.3001          MASS STORAGE =           0.5000
    CNST H MASS FLUX =           0.0000      CNST H MASS FLUX =           0.0000
      WELL MASS FLUX =           0.0000        WELL MASS FLUX =           0.0000

            TOTAL IN =          19.3001              TOTAL IN =           0.5000

          OUT:                                     OUT:
          ----                                     ----
        MASS STORAGE =           0.2827          MASS STORAGE =       8.0293E-10
    CNST H MASS FLUX =           0.0000      CNST H MASS FLUX =           0.0000
      WELL MASS FLUX =          19.0173        WELL MASS FLUX =           0.5000

           TOTAL OUT =          19.3001             TOTAL OUT =           0.5000

            IN - OUT =      -1.7813E-11              IN - OUT =      -8.0293E-10

 PERCENT DISCREPANCY =          -0.00     PERCENT DISCREPANCY =          -0.00






          TIME SUMMARY AT END OF TIME STEP         5 IN STRESS PERIOD         2
                    SECONDS     MINUTES      HOURS       DAYS        YEARS
                    -----------------------------------------------------------
   TIME STEP LENGTH 2.07051E+05  3450.8      57.514      2.3964     6.56105E-03
 STRESS PERIOD TIME 7.43051E+05  12384.      206.40      8.6001     2.35459E-02
         TOTAL TIME 3.33505E+06  55584.      926.40      38.600     0.10568    
1
 -------------------------------------------------------------------------------------
 
 SOLVING FOR HEAD 

 Outer-Iteration  Inner-Iteration  Backtracking  Number of        Incoming       Outgoing  Maximum HeadChange      Maximum Head Change
     Number           Count           Flag       Backtracks       Residual       Residual           Value              Location
        1                             0             0          0.509744E-01     0.509744E-01
        1                6                                                                       -0.423327                   590           GWF-node number
        1                6                                                                       -0.177004                     3           CLN-node number
        2                             0             0          0.142569E-13     0.142569E-13
        2                1                                                                        0.965926E-07               190           GWF-node number
        2                1                                                                        0.250727E-06                 3           CLN-node number
     2 CALLS TO SPARSE MATRIX SOLVER PACKAGE  IN FLOW TIME STEP       6 STRESS PERIOD       2

 TOTAL OF       2OUTER ITERATIONS
  MAXIMUM CHANGE FOR EACH ITERATION:
   MAX. CHANGE        NODE  MAX. CHANGE        NODE  MAX. CHANGE        NODE  MAX. CHANGE        NODE  MAX. CHANGE        NODE
 ------------------------------------------------------------------------------------------------------------------------------------
  -0.42333    ,        590  0.96593E-07,        190

  MAXIMUM CHANGE FOR CLN NODE AT EACH ITERATION:
   MAX. CHANGE    CLN-CELL  MAX. CHANGE    CLN-CELL  MAX. CHANGE    CLN-CELL  MAX. CHANGE    CLN-CELL  MAX. CHANGE    CLN-CELL
 ------------------------------------------------------------------------------------------------------------------------------------
  -0.17700    ,          3  0.25073E-06,          3

 HEAD/DRAWDOWN PRINTOUT FLAG = 1     TOTAL BUDGET PRINTOUT FLAG = 1
 CELL-BY-CELL FLOW TERM FLAG = 1
 CONCENTRATION PRINTOUT FLAG = 1

 OUTPUT FLAGS FOR ALL LAYERS ARE THE SAME:
   HEAD    DRAWDOWN  HEAD  DRAWDOWN    CONC    CONC
 PRINTOUT  PRINTOUT  SAVE    SAVE    PRINTOUT  SAVE
 ---------------------------------------------------
     0         0       1       1       0       1
 UBUDSVU SAVING "         STORAGE" ON UNIT  50 AT TIME STEP      6, STRESS PERIOD      2
 UBUDSV SAVING "     CLN STORAGE" ON UNIT 144 AT TIME STEP      6, STRESS PERIOD       2
 UBUDSVU SAVING "   CONSTANT HEAD" ON UNIT  50 AT TIME STEP      6, STRESS PERIOD      2
 UBUDSVU SAVING "   FLOW JA FACE " ON UNIT  50 AT TIME STEP      6, STRESS PERIOD      2
 UBUDSVU SAVING "             CLN" ON UNIT  50 AT TIME STEP      6, STRESS PERIOD      2
 UBUDSVU SAVING "  CLN CONST HEAD" ON UNIT 144 AT TIME STEP      6, STRESS PERIOD      2
 UBUDSVU SAVING "   FLOW CLN FACE" ON UNIT 144 AT TIME STEP      6, STRESS PERIOD      2
 UBUDSVU SAVING "             GWF" ON UNIT 144 AT TIME STEP      6, STRESS PERIOD      2
 UBUDSVU SAVING "           WELLS" ON UNIT  50 AT TIME STEP      6, STRESS PERIOD      2
 UBUDSVU SAVING "           WELLS" ON UNIT 144 AT TIME STEP      6, STRESS PERIOD      2

 HEAD WILL BE SAVED ON UNIT       30 AT END OF TIME STEP        6, STRESS PERIOD        2

 DRAWDOWN WILL BE SAVED ON UNIT   31 AT END OF TIME STEP   6, STRESS PERIOD    2

 CLN HEAD WILL BE SAVED ON UNIT   77 AT END OF TIME STEP   6, STRESS PERIOD    2
1
  VOLUMETRIC BUDGET FOR ENTIRE MODEL AT END OF TIME STEP       6 IN STRESS PERIOD       2
  ---------------------------------------------------------------------------------------

     CUMULATIVE VOLUMES      L**3       RATES FOR THIS TIME STEP      L**3/T
     ------------------                 ------------------------

           IN:                                      IN:
           ---                                      ---
             STORAGE =         207.3792               STORAGE =           5.0000
         CLN STORAGE =           0.0000           CLN STORAGE =           0.0000
       CONSTANT HEAD =           0.0000         CONSTANT HEAD =           0.0000
      CLN CONST HEAD =           0.0000        CLN CONST HEAD =           0.0000
               WELLS =           0.0000                 WELLS =           0.0000

            TOTAL IN =         207.3792              TOTAL IN =           5.0000

          OUT:                                     OUT:
          ----                                     ----
             STORAGE =           0.0000               STORAGE =           0.0000
         CLN STORAGE =           0.0000           CLN STORAGE =           0.0000
       CONSTANT HEAD =           0.0000         CONSTANT HEAD =           0.0000
      CLN CONST HEAD =           0.0000        CLN CONST HEAD =           0.0000
               WELLS =         207.3792                 WELLS =           5.0000

           TOTAL OUT =         207.3792             TOTAL OUT =           5.0000

            IN - OUT =       3.0498E-06              IN - OUT =       1.1933E-07

 PERCENT DISCREPANCY =           0.00     PERCENT DISCREPANCY =           0.00






          TIME SUMMARY AT END OF TIME STEP         6 IN STRESS PERIOD         2
                    SECONDS     MINUTES      HOURS       DAYS        YEARS
                    -----------------------------------------------------------
   TIME STEP LENGTH 2.48461E+05  4141.0      69.017      2.8757     7.87326E-03
 STRESS PERIOD TIME 9.91512E+05  16525.      275.42      11.476     3.14191E-02
         TOTAL TIME 3.58351E+06  59725.      995.42      41.476     0.11355    
1
 ------------------------------------------------------------------------------------------------------------
 
 SOLVING FOR TRANSPORT 

 ------------------------------------------------------------------------------------------------------------------------
     1 CALLS TO SPARSE MATRIX SOLVER PACKAGE IN TRANSPORT TIME STEP       6 STRESS PERIOD       2 SPECIES  1

 TOTAL OF       1OUTER ITERATIONS
  MAXIMUM CHANGE FOR EACH ITERATION:
   MAX. CHANGE        NODE  MAX. CHANGE        NODE  MAX. CHANGE        NODE  MAX. CHANGE        NODE  MAX. CHANGE        NODE
 ------------------------------------------------------------------------------------------------------------------------------------
   0.28625E-10,        191

  MAXIMUM CHANGE FOR CLN NODE AT EACH ITERATION:
   MAX. CHANGE    CLN-CELL  MAX. CHANGE    CLN-CELL  MAX. CHANGE    CLN-CELL  MAX. CHANGE    CLN-CELL  MAX. CHANGE    CLN-CELL
 ------------------------------------------------------------------------------------------------------------------------------------
   0.22410E-08,          2
     TRANSPORT SOLUTION COMPLETE FOR COMPONENT SPECIES NUMBER    1
     ------------------------------------------------------------
 UBUDSVU SAVING "    MASS STORAGE" ON UNIT 145 AT TIME STEP      6, STRESS PERIOD      2
 UBUDSVU SAVING "CLN MASS STORAGE" ON UNIT 145 AT TIME STEP      6, STRESS PERIOD      2
 UBUDSVU SAVING "CNST H MASS FLUX" ON UNIT 145 AT TIME STEP      6, STRESS PERIOD      2
 UBUDSVU SAVING "  WELL MASS FLUX" ON UNIT 145 AT TIME STEP      6, STRESS PERIOD      2

 TRANSPORT SOLUTION COMPLETE FOR ALL SPECIES, SORTING OUTPUT FOR CONCENTRATIONS AND MASS BALANCE
 ----------------------------------------------------------------------------------------------------
     TRANSPORT OUTPUT FOR COMPONENT SPECIES NUMBER    1
     ------------------------------------------------------------

 CONC WILL BE SAVED ON UNIT  132 AT END OF TIME STEP        6, STRESS PERIOD        2

 CLN CONC WILL BE SAVED ON UNIT  188 AT END OF TIME STEP   6, STRESS PERIOD    2
1
  VOLUMETRIC BUDGET FOR ENTIRE MODEL AT END OF TIME STEP       6 IN STRESS PERIOD       2
  ---------------------------------------------------------------------------------------

     CUMULATIVE VOLUMES      L**3       RATES FOR THIS TIME STEP      L**3/T
     ------------------                 ------------------------

           IN:                                      IN:
           ---                                      ---
        MASS STORAGE =          20.7379          MASS STORAGE =           0.5000
    CNST H MASS FLUX =           0.0000      CNST H MASS FLUX =           0.0000
      WELL MASS FLUX =           0.0000        WELL MASS FLUX =           0.0000

            TOTAL IN =          20.7379              TOTAL IN =           0.5000

          OUT:                                     OUT:
          ----                                     ----
        MASS STORAGE =           0.2827          MASS STORAGE =       7.8919E-10
    CNST H MASS FLUX =           0.0000      CNST H MASS FLUX =           0.0000
      WELL MASS FLUX =          20.4552        WELL MASS FLUX =           0.5000

           TOTAL OUT =          20.7379             TOTAL OUT =           0.5000

            IN - OUT =      -1.1248E-11              IN - OUT =      -7.8919E-10

 PERCENT DISCREPANCY =          -0.00     PERCENT DISCREPANCY =          -0.00






          TIME SUMMARY AT END OF TIME STEP         6 IN STRESS PERIOD         2
                    SECONDS     MINUTES      HOURS       DAYS        YEARS
                    -----------------------------------------------------------
   TIME STEP LENGTH 2.48461E+05  4141.0      69.017      2.8757     7.87326E-03
 STRESS PERIOD TIME 9.91512E+05  16525.      275.42      11.476     3.14191E-02
         TOTAL TIME 3.58351E+06  59725.      995.42      41.476     0.11355    
1
 -------------------------------------------------------------------------------------
 
 SOLVING FOR HEAD 

 Outer-Iteration  Inner-Iteration  Backtracking  Number of        Incoming       Outgoing  Maximum HeadChange      Maximum Head Change
     Number           Count           Flag       Backtracks       Residual       Residual           Value              Location
        1                             0             0          0.504972E-01     0.504972E-01
        1                6                                                                       -0.469554                   590           GWF-node number
        1                6                                                                       -0.204754                     3           CLN-node number
        2                             0             0          0.848177E-14     0.848177E-14
        2                1                                                                        0.923496E-07               190           GWF-node number
        2                1                                                                        0.248330E-06                 3           CLN-node number
     2 CALLS TO SPARSE MATRIX SOLVER PACKAGE  IN FLOW TIME STEP       7 STRESS PERIOD       2

 TOTAL OF       2OUTER ITERATIONS
  MAXIMUM CHANGE FOR EACH ITERATION:
   MAX. CHANGE        NODE  MAX. CHANGE        NODE  MAX. CHANGE        NODE  MAX. CHANGE        NODE  MAX. CHANGE        NODE
 ------------------------------------------------------------------------------------------------------------------------------------
  -0.46955    ,        590  0.92350E-07,        190

  MAXIMUM CHANGE FOR CLN NODE AT EACH ITERATION:
   MAX. CHANGE    CLN-CELL  MAX. CHANGE    CLN-CELL  MAX. CHANGE    CLN-CELL  MAX. CHANGE    CLN-CELL  MAX. CHANGE    CLN-CELL
 ------------------------------------------------------------------------------------------------------------------------------------
  -0.20475    ,          3  0.24833E-06,          3

 HEAD/DRAWDOWN PRINTOUT FLAG = 1     TOTAL BUDGET PRINTOUT FLAG = 1
 CELL-BY-CELL FLOW TERM FLAG = 1
 CONCENTRATION PRINTOUT FLAG = 1

 OUTPUT FLAGS FOR ALL LAYERS ARE THE SAME:
   HEAD    DRAWDOWN  HEAD  DRAWDOWN    CONC    CONC
 PRINTOUT  PRINTOUT  SAVE    SAVE    PRINTOUT  SAVE
 ---------------------------------------------------
     0         0       1       1       0       1
 UBUDSVU SAVING "         STORAGE" ON UNIT  50 AT TIME STEP      7, STRESS PERIOD      2
 UBUDSV SAVING "     CLN STORAGE" ON UNIT 144 AT TIME STEP      7, STRESS PERIOD       2
 UBUDSVU SAVING "   CONSTANT HEAD" ON UNIT  50 AT TIME STEP      7, STRESS PERIOD      2
 UBUDSVU SAVING "   FLOW JA FACE " ON UNIT  50 AT TIME STEP      7, STRESS PERIOD      2
 UBUDSVU SAVING "             CLN" ON UNIT  50 AT TIME STEP      7, STRESS PERIOD      2
 UBUDSVU SAVING "  CLN CONST HEAD" ON UNIT 144 AT TIME STEP      7, STRESS PERIOD      2
 UBUDSVU SAVING "   FLOW CLN FACE" ON UNIT 144 AT TIME STEP      7, STRESS PERIOD      2
 UBUDSVU SAVING "             GWF" ON UNIT 144 AT TIME STEP      7, STRESS PERIOD      2
 UBUDSVU SAVING "           WELLS" ON UNIT  50 AT TIME STEP      7, STRESS PERIOD      2
 UBUDSVU SAVING "           WELLS" ON UNIT 144 AT TIME STEP      7, STRESS PERIOD      2

 HEAD WILL BE SAVED ON UNIT       30 AT END OF TIME STEP        7, STRESS PERIOD        2

 DRAWDOWN WILL BE SAVED ON UNIT   31 AT END OF TIME STEP   7, STRESS PERIOD    2

 CLN HEAD WILL BE SAVED ON UNIT   77 AT END OF TIME STEP   7, STRESS PERIOD    2
1
  VOLUMETRIC BUDGET FOR ENTIRE MODEL AT END OF TIME STEP       7 IN STRESS PERIOD       2
  ---------------------------------------------------------------------------------------

     CUMULATIVE VOLUMES      L**3       RATES FOR THIS TIME STEP      L**3/T
     ------------------                 ------------------------

           IN:                                      IN:
           ---                                      ---
             STORAGE =         224.6334               STORAGE =           5.0000
         CLN STORAGE =           0.0000           CLN STORAGE =           0.0000
       CONSTANT HEAD =           0.0000         CONSTANT HEAD =           0.0000
      CLN CONST HEAD =           0.0000        CLN CONST HEAD =           0.0000
               WELLS =           0.0000                 WELLS =           0.0000

            TOTAL IN =         224.6334              TOTAL IN =           5.0000

          OUT:                                     OUT:
          ----                                     ----
             STORAGE =           0.0000               STORAGE =           0.0000
         CLN STORAGE =           0.0000           CLN STORAGE =           0.0000
       CONSTANT HEAD =           0.0000         CONSTANT HEAD =           0.0000
      CLN CONST HEAD =           0.0000        CLN CONST HEAD =           0.0000
               WELLS =         224.6334                 WELLS =           5.0000

           TOTAL OUT =         224.6334             TOTAL OUT =           5.0000

            IN - OUT =       3.2219E-06              IN - OUT =       4.9882E-08

 PERCENT DISCREPANCY =           0.00     PERCENT DISCREPANCY =           0.00






          TIME SUMMARY AT END OF TIME STEP         7 IN STRESS PERIOD         2
                    SECONDS     MINUTES      HOURS       DAYS        YEARS
                    -----------------------------------------------------------
   TIME STEP LENGTH 2.98153E+05  4969.2      82.820      3.4509     9.44791E-03
 STRESS PERIOD TIME 1.28967E+06  21494.      358.24      14.927     4.08670E-02
         TOTAL TIME 3.88167E+06  64694.      1078.2      44.927     0.12300    
1
 ------------------------------------------------------------------------------------------------------------
 
 SOLVING FOR TRANSPORT 

 ------------------------------------------------------------------------------------------------------------------------
     1 CALLS TO SPARSE MATRIX SOLVER PACKAGE IN TRANSPORT TIME STEP       7 STRESS PERIOD       2 SPECIES  1

 TOTAL OF       1OUTER ITERATIONS
  MAXIMUM CHANGE FOR EACH ITERATION:
   MAX. CHANGE        NODE  MAX. CHANGE        NODE  MAX. CHANGE        NODE  MAX. CHANGE        NODE  MAX. CHANGE        NODE
 ------------------------------------------------------------------------------------------------------------------------------------
   0.33971E-10,        191

  MAXIMUM CHANGE FOR CLN NODE AT EACH ITERATION:
   MAX. CHANGE    CLN-CELL  MAX. CHANGE    CLN-CELL  MAX. CHANGE    CLN-CELL  MAX. CHANGE    CLN-CELL  MAX. CHANGE    CLN-CELL
 ------------------------------------------------------------------------------------------------------------------------------------
  -0.24225E-08,          2
     TRANSPORT SOLUTION COMPLETE FOR COMPONENT SPECIES NUMBER    1
     ------------------------------------------------------------
 UBUDSVU SAVING "    MASS STORAGE" ON UNIT 145 AT TIME STEP      7, STRESS PERIOD      2
 UBUDSVU SAVING "CLN MASS STORAGE" ON UNIT 145 AT TIME STEP      7, STRESS PERIOD      2
 UBUDSVU SAVING "CNST H MASS FLUX" ON UNIT 145 AT TIME STEP      7, STRESS PERIOD      2
 UBUDSVU SAVING "  WELL MASS FLUX" ON UNIT 145 AT TIME STEP      7, STRESS PERIOD      2

 TRANSPORT SOLUTION COMPLETE FOR ALL SPECIES, SORTING OUTPUT FOR CONCENTRATIONS AND MASS BALANCE
 ----------------------------------------------------------------------------------------------------
     TRANSPORT OUTPUT FOR COMPONENT SPECIES NUMBER    1
     ------------------------------------------------------------

 CONC WILL BE SAVED ON UNIT  132 AT END OF TIME STEP        7, STRESS PERIOD        2

 CLN CONC WILL BE SAVED ON UNIT  188 AT END OF TIME STEP   7, STRESS PERIOD    2
1
  VOLUMETRIC BUDGET FOR ENTIRE MODEL AT END OF TIME STEP       7 IN STRESS PERIOD       2
  ---------------------------------------------------------------------------------------

     CUMULATIVE VOLUMES      L**3       RATES FOR THIS TIME STEP      L**3/T
     ------------------                 ------------------------

           IN:                                      IN:
           ---                                      ---
        MASS STORAGE =          22.4633          MASS STORAGE =           0.5000
    CNST H MASS FLUX =           0.0000      CNST H MASS FLUX =           0.0000
      WELL MASS FLUX =           0.0000        WELL MASS FLUX =           0.0000

            TOTAL IN =          22.4633              TOTAL IN =           0.5000

          OUT:                                     OUT:
          ----                                     ----
        MASS STORAGE =           0.2827          MASS STORAGE =           0.0000
    CNST H MASS FLUX =           0.0000      CNST H MASS FLUX =           0.0000
      WELL MASS FLUX =          22.1806        WELL MASS FLUX =           0.5000

           TOTAL OUT =          22.4633             TOTAL OUT =           0.5000

            IN - OUT =       5.1763E-12              IN - OUT =           0.0000

 PERCENT DISCREPANCY =           0.00     PERCENT DISCREPANCY =           0.00






          TIME SUMMARY AT END OF TIME STEP         7 IN STRESS PERIOD         2
                    SECONDS     MINUTES      HOURS       DAYS        YEARS
                    -----------------------------------------------------------
   TIME STEP LENGTH 2.98153E+05  4969.2      82.820      3.4509     9.44791E-03
 STRESS PERIOD TIME 1.28967E+06  21494.      358.24      14.927     4.08670E-02
         TOTAL TIME 3.88167E+06  64694.      1078.2      44.927     0.12300    
1
 -------------------------------------------------------------------------------------
 
 SOLVING FOR HEAD 

 Outer-Iteration  Inner-Iteration  Backtracking  Number of        Incoming       Outgoing  Maximum HeadChange      Maximum Head Change
     Number           Count           Flag       Backtracks       Residual       Residual           Value              Location
        1                             0             0          0.500267E-01     0.500267E-01
        1                6                                                                       -0.514767                   590           GWF-node number
        1                6                                                                       -0.237572                     1           CLN-node number
        2                             0             0          0.423122E-13     0.423122E-13
        2                1                                                                        0.172793E-06               416           GWF-node number
        2                1                                                                        0.318683E-07                 1           CLN-node number
     2 CALLS TO SPARSE MATRIX SOLVER PACKAGE  IN FLOW TIME STEP       8 STRESS PERIOD       2

 TOTAL OF       2OUTER ITERATIONS
  MAXIMUM CHANGE FOR EACH ITERATION:
   MAX. CHANGE        NODE  MAX. CHANGE        NODE  MAX. CHANGE        NODE  MAX. CHANGE        NODE  MAX. CHANGE        NODE
 ------------------------------------------------------------------------------------------------------------------------------------
  -0.51477    ,        590  0.17279E-06,        416

  MAXIMUM CHANGE FOR CLN NODE AT EACH ITERATION:
   MAX. CHANGE    CLN-CELL  MAX. CHANGE    CLN-CELL  MAX. CHANGE    CLN-CELL  MAX. CHANGE    CLN-CELL  MAX. CHANGE    CLN-CELL
 ------------------------------------------------------------------------------------------------------------------------------------
  -0.23757    ,          1  0.31868E-07,          1

 HEAD/DRAWDOWN PRINTOUT FLAG = 1     TOTAL BUDGET PRINTOUT FLAG = 1
 CELL-BY-CELL FLOW TERM FLAG = 1
 CONCENTRATION PRINTOUT FLAG = 1

 OUTPUT FLAGS FOR ALL LAYERS ARE THE SAME:
   HEAD    DRAWDOWN  HEAD  DRAWDOWN    CONC    CONC
 PRINTOUT  PRINTOUT  SAVE    SAVE    PRINTOUT  SAVE
 ---------------------------------------------------
     0         0       1       1       0       1
 UBUDSVU SAVING "         STORAGE" ON UNIT  50 AT TIME STEP      8, STRESS PERIOD      2
 UBUDSV SAVING "     CLN STORAGE" ON UNIT 144 AT TIME STEP      8, STRESS PERIOD       2
 UBUDSVU SAVING "   CONSTANT HEAD" ON UNIT  50 AT TIME STEP      8, STRESS PERIOD      2
 UBUDSVU SAVING "   FLOW JA FACE " ON UNIT  50 AT TIME STEP      8, STRESS PERIOD      2
 UBUDSVU SAVING "             CLN" ON UNIT  50 AT TIME STEP      8, STRESS PERIOD      2
 UBUDSVU SAVING "  CLN CONST HEAD" ON UNIT 144 AT TIME STEP      8, STRESS PERIOD      2
 UBUDSVU SAVING "   FLOW CLN FACE" ON UNIT 144 AT TIME STEP      8, STRESS PERIOD      2
 UBUDSVU SAVING "             GWF" ON UNIT 144 AT TIME STEP      8, STRESS PERIOD      2
 UBUDSVU SAVING "           WELLS" ON UNIT  50 AT TIME STEP      8, STRESS PERIOD      2
 UBUDSVU SAVING "           WELLS" ON UNIT 144 AT TIME STEP      8, STRESS PERIOD      2

 HEAD WILL BE SAVED ON UNIT       30 AT END OF TIME STEP        8, STRESS PERIOD        2

 DRAWDOWN WILL BE SAVED ON UNIT   31 AT END OF TIME STEP   8, STRESS PERIOD    2

 CLN HEAD WILL BE SAVED ON UNIT   77 AT END OF TIME STEP   8, STRESS PERIOD    2
1
  VOLUMETRIC BUDGET FOR ENTIRE MODEL AT END OF TIME STEP       8 IN STRESS PERIOD       2
  ---------------------------------------------------------------------------------------

     CUMULATIVE VOLUMES      L**3       RATES FOR THIS TIME STEP      L**3/T
     ------------------                 ------------------------

           IN:                                      IN:
           ---                                      ---
             STORAGE =         245.3385               STORAGE =           5.0000
         CLN STORAGE =           0.0000           CLN STORAGE =           0.0000
       CONSTANT HEAD =           0.0000         CONSTANT HEAD =           0.0000
      CLN CONST HEAD =           0.0000        CLN CONST HEAD =           0.0000
               WELLS =           0.0000                 WELLS =           0.0000

            TOTAL IN =         245.3385              TOTAL IN =           5.0000

          OUT:                                     OUT:
          ----                                     ----
             STORAGE =           0.0000               STORAGE =           0.0000
         CLN STORAGE =           0.0000           CLN STORAGE =           0.0000
       CONSTANT HEAD =           0.0000         CONSTANT HEAD =           0.0000
      CLN CONST HEAD =           0.0000        CLN CONST HEAD =           0.0000
               WELLS =         245.3385                 WELLS =           5.0000

           TOTAL OUT =         245.3385             TOTAL OUT =           5.0000

            IN - OUT =       3.5007E-06              IN - OUT =       6.7321E-08

 PERCENT DISCREPANCY =           0.00     PERCENT DISCREPANCY =           0.00






          TIME SUMMARY AT END OF TIME STEP         8 IN STRESS PERIOD         2
                    SECONDS     MINUTES      HOURS       DAYS        YEARS
                    -----------------------------------------------------------
   TIME STEP LENGTH 3.57784E+05  5963.1      99.384      4.1410     1.13375E-02
 STRESS PERIOD TIME 1.64745E+06  27457.      457.62      19.068     5.22045E-02
         TOTAL TIME 4.23945E+06  70657.      1177.6      49.068     0.13434    
1
 ------------------------------------------------------------------------------------------------------------
 
 SOLVING FOR TRANSPORT 

 ------------------------------------------------------------------------------------------------------------------------
     1 CALLS TO SPARSE MATRIX SOLVER PACKAGE IN TRANSPORT TIME STEP       8 STRESS PERIOD       2 SPECIES  1

 TOTAL OF       1OUTER ITERATIONS
  MAXIMUM CHANGE FOR EACH ITERATION:
   MAX. CHANGE        NODE  MAX. CHANGE        NODE  MAX. CHANGE        NODE  MAX. CHANGE        NODE  MAX. CHANGE        NODE
 ------------------------------------------------------------------------------------------------------------------------------------
   0.32993E-11,        191

  MAXIMUM CHANGE FOR CLN NODE AT EACH ITERATION:
   MAX. CHANGE    CLN-CELL  MAX. CHANGE    CLN-CELL  MAX. CHANGE    CLN-CELL  MAX. CHANGE    CLN-CELL  MAX. CHANGE    CLN-CELL
 ------------------------------------------------------------------------------------------------------------------------------------
   0.14751E-08,          2
     TRANSPORT SOLUTION COMPLETE FOR COMPONENT SPECIES NUMBER    1
     ------------------------------------------------------------
 UBUDSVU SAVING "    MASS STORAGE" ON UNIT 145 AT TIME STEP      8, STRESS PERIOD      2
 UBUDSVU SAVING "CLN MASS STORAGE" ON UNIT 145 AT TIME STEP      8, STRESS PERIOD      2
 UBUDSVU SAVING "CNST H MASS FLUX" ON UNIT 145 AT TIME STEP      8, STRESS PERIOD      2
 UBUDSVU SAVING "  WELL MASS FLUX" ON UNIT 145 AT TIME STEP      8, STRESS PERIOD      2

 TRANSPORT SOLUTION COMPLETE FOR ALL SPECIES, SORTING OUTPUT FOR CONCENTRATIONS AND MASS BALANCE
 ----------------------------------------------------------------------------------------------------
     TRANSPORT OUTPUT FOR COMPONENT SPECIES NUMBER    1
     ------------------------------------------------------------

 CONC WILL BE SAVED ON UNIT  132 AT END OF TIME STEP        8, STRESS PERIOD        2

 CLN CONC WILL BE SAVED ON UNIT  188 AT END OF TIME STEP   8, STRESS PERIOD    2
1
  VOLUMETRIC BUDGET FOR ENTIRE MODEL AT END OF TIME STEP       8 IN STRESS PERIOD       2
  ---------------------------------------------------------------------------------------

     CUMULATIVE VOLUMES      L**3       RATES FOR THIS TIME STEP      L**3/T
     ------------------                 ------------------------

           IN:                                      IN:
           ---                                      ---
        MASS STORAGE =          24.5339          MASS STORAGE =           0.5000
    CNST H MASS FLUX =           0.0000      CNST H MASS FLUX =           0.0000
      WELL MASS FLUX =           0.0000        WELL MASS FLUX =           0.0000

            TOTAL IN =          24.5339              TOTAL IN =           0.5000

          OUT:                                     OUT:
          ----                                     ----
        MASS STORAGE =           0.2827          MASS STORAGE =       4.8991E-10
    CNST H MASS FLUX =           0.0000      CNST H MASS FLUX =           0.0000
      WELL MASS FLUX =          24.2511        WELL MASS FLUX =           0.5000

           TOTAL OUT =          24.5339             TOTAL OUT =           0.5000

            IN - OUT =       7.6597E-12              IN - OUT =      -4.8991E-10

 PERCENT DISCREPANCY =           0.00     PERCENT DISCREPANCY =          -0.00






          TIME SUMMARY AT END OF TIME STEP         8 IN STRESS PERIOD         2
                    SECONDS     MINUTES      HOURS       DAYS        YEARS
                    -----------------------------------------------------------
   TIME STEP LENGTH 3.57784E+05  5963.1      99.384      4.1410     1.13375E-02
 STRESS PERIOD TIME 1.64745E+06  27457.      457.62      19.068     5.22045E-02
         TOTAL TIME 4.23945E+06  70657.      1177.6      49.068     0.13434    
1
 -------------------------------------------------------------------------------------
 
 SOLVING FOR HEAD 

 Outer-Iteration  Inner-Iteration  Backtracking  Number of        Incoming       Outgoing  Maximum HeadChange      Maximum Head Change
     Number           Count           Flag       Backtracks       Residual       Residual           Value              Location
        1                             0             0          0.495562E-01     0.495562E-01
        1                7                                                                       -0.557719                   590           GWF-node number
        1                7                                                                       -0.276671                     3           CLN-node number
        2                             0             0          0.210576E-13     0.210576E-13
        2                1                                                                       -0.165093E-07               416           GWF-node number
        2                1                                                                        0.139565E-07                 2           CLN-node number
     2 CALLS TO SPARSE MATRIX SOLVER PACKAGE  IN FLOW TIME STEP       9 STRESS PERIOD       2

 TOTAL OF       2OUTER ITERATIONS
  MAXIMUM CHANGE FOR EACH ITERATION:
   MAX. CHANGE        NODE  MAX. CHANGE        NODE  MAX. CHANGE        NODE  MAX. CHANGE        NODE  MAX. CHANGE        NODE
 ------------------------------------------------------------------------------------------------------------------------------------
  -0.55772    ,        590 -0.16509E-07,        416

  MAXIMUM CHANGE FOR CLN NODE AT EACH ITERATION:
   MAX. CHANGE    CLN-CELL  MAX. CHANGE    CLN-CELL  MAX. CHANGE    CLN-CELL  MAX. CHANGE    CLN-CELL  MAX. CHANGE    CLN-CELL
 ------------------------------------------------------------------------------------------------------------------------------------
  -0.27667    ,          3  0.13956E-07,          2

 HEAD/DRAWDOWN PRINTOUT FLAG = 1     TOTAL BUDGET PRINTOUT FLAG = 1
 CELL-BY-CELL FLOW TERM FLAG = 1
 CONCENTRATION PRINTOUT FLAG = 1

 OUTPUT FLAGS FOR ALL LAYERS ARE THE SAME:
   HEAD    DRAWDOWN  HEAD  DRAWDOWN    CONC    CONC
 PRINTOUT  PRINTOUT  SAVE    SAVE    PRINTOUT  SAVE
 ---------------------------------------------------
     0         0       1       1       0       1
 UBUDSVU SAVING "         STORAGE" ON UNIT  50 AT TIME STEP      9, STRESS PERIOD      2
 UBUDSV SAVING "     CLN STORAGE" ON UNIT 144 AT TIME STEP      9, STRESS PERIOD       2
 UBUDSVU SAVING "   CONSTANT HEAD" ON UNIT  50 AT TIME STEP      9, STRESS PERIOD      2
 UBUDSVU SAVING "   FLOW JA FACE " ON UNIT  50 AT TIME STEP      9, STRESS PERIOD      2
 UBUDSVU SAVING "             CLN" ON UNIT  50 AT TIME STEP      9, STRESS PERIOD      2
 UBUDSVU SAVING "  CLN CONST HEAD" ON UNIT 144 AT TIME STEP      9, STRESS PERIOD      2
 UBUDSVU SAVING "   FLOW CLN FACE" ON UNIT 144 AT TIME STEP      9, STRESS PERIOD      2
 UBUDSVU SAVING "             GWF" ON UNIT 144 AT TIME STEP      9, STRESS PERIOD      2
 UBUDSVU SAVING "           WELLS" ON UNIT  50 AT TIME STEP      9, STRESS PERIOD      2
 UBUDSVU SAVING "           WELLS" ON UNIT 144 AT TIME STEP      9, STRESS PERIOD      2

 HEAD WILL BE SAVED ON UNIT       30 AT END OF TIME STEP        9, STRESS PERIOD        2

 DRAWDOWN WILL BE SAVED ON UNIT   31 AT END OF TIME STEP   9, STRESS PERIOD    2

 CLN HEAD WILL BE SAVED ON UNIT   77 AT END OF TIME STEP   9, STRESS PERIOD    2
1
  VOLUMETRIC BUDGET FOR ENTIRE MODEL AT END OF TIME STEP       9 IN STRESS PERIOD       2
  ---------------------------------------------------------------------------------------

     CUMULATIVE VOLUMES      L**3       RATES FOR THIS TIME STEP      L**3/T
     ------------------                 ------------------------

           IN:                                      IN:
           ---                                      ---
             STORAGE =         270.1846               STORAGE =           5.0000
         CLN STORAGE =           0.0000           CLN STORAGE =           0.0000
       CONSTANT HEAD =           0.0000         CONSTANT HEAD =           0.0000
      CLN CONST HEAD =           0.0000        CLN CONST HEAD =           0.0000
               WELLS =           0.0000                 WELLS =           0.0000

            TOTAL IN =         270.1846              TOTAL IN =           5.0000

          OUT:                                     OUT:
          ----                                     ----
             STORAGE =           0.0000               STORAGE =           0.0000
         CLN STORAGE =           0.0000           CLN STORAGE =           0.0000
       CONSTANT HEAD =           0.0000         CONSTANT HEAD =           0.0000
      CLN CONST HEAD =           0.0000        CLN CONST HEAD =           0.0000
               WELLS =         270.1846                 WELLS =           5.0000

           TOTAL OUT =         270.1846             TOTAL OUT =           5.0000

            IN - OUT =       3.4910E-06              IN - OUT =      -1.9483E-09

 PERCENT DISCREPANCY =           0.00     PERCENT DISCREPANCY =          -0.00






          TIME SUMMARY AT END OF TIME STEP         9 IN STRESS PERIOD         2
                    SECONDS     MINUTES      HOURS       DAYS        YEARS
                    -----------------------------------------------------------
   TIME STEP LENGTH 4.29341E+05  7155.7      119.26      4.9692     1.36050E-02
 STRESS PERIOD TIME 2.07679E+06  34613.      576.89      24.037     6.58095E-02
         TOTAL TIME 4.66879E+06  77813.      1296.9      54.037     0.14795    
1
 ------------------------------------------------------------------------------------------------------------
 
 SOLVING FOR TRANSPORT 

 ------------------------------------------------------------------------------------------------------------------------
     1 CALLS TO SPARSE MATRIX SOLVER PACKAGE IN TRANSPORT TIME STEP       9 STRESS PERIOD       2 SPECIES  1

 TOTAL OF       1OUTER ITERATIONS
  MAXIMUM CHANGE FOR EACH ITERATION:
   MAX. CHANGE        NODE  MAX. CHANGE        NODE  MAX. CHANGE        NODE  MAX. CHANGE        NODE  MAX. CHANGE        NODE
 ------------------------------------------------------------------------------------------------------------------------------------
   0.32275E-11,        190

  MAXIMUM CHANGE FOR CLN NODE AT EACH ITERATION:
   MAX. CHANGE    CLN-CELL  MAX. CHANGE    CLN-CELL  MAX. CHANGE    CLN-CELL  MAX. CHANGE    CLN-CELL  MAX. CHANGE    CLN-CELL
 ------------------------------------------------------------------------------------------------------------------------------------
  -0.20708E-08,          2
     TRANSPORT SOLUTION COMPLETE FOR COMPONENT SPECIES NUMBER    1
     ------------------------------------------------------------
 UBUDSVU SAVING "    MASS STORAGE" ON UNIT 145 AT TIME STEP      9, STRESS PERIOD      2
 UBUDSVU SAVING "CLN MASS STORAGE" ON UNIT 145 AT TIME STEP      9, STRESS PERIOD      2
 UBUDSVU SAVING "CNST H MASS FLUX" ON UNIT 145 AT TIME STEP      9, STRESS PERIOD      2
 UBUDSVU SAVING "  WELL MASS FLUX" ON UNIT 145 AT TIME STEP      9, STRESS PERIOD      2

 TRANSPORT SOLUTION COMPLETE FOR ALL SPECIES, SORTING OUTPUT FOR CONCENTRATIONS AND MASS BALANCE
 ----------------------------------------------------------------------------------------------------
     TRANSPORT OUTPUT FOR COMPONENT SPECIES NUMBER    1
     ------------------------------------------------------------

 CONC WILL BE SAVED ON UNIT  132 AT END OF TIME STEP        9, STRESS PERIOD        2

 CLN CONC WILL BE SAVED ON UNIT  188 AT END OF TIME STEP   9, STRESS PERIOD    2
1
  VOLUMETRIC BUDGET FOR ENTIRE MODEL AT END OF TIME STEP       9 IN STRESS PERIOD       2
  ---------------------------------------------------------------------------------------

     CUMULATIVE VOLUMES      L**3       RATES FOR THIS TIME STEP      L**3/T
     ------------------                 ------------------------

           IN:                                      IN:
           ---                                      ---
        MASS STORAGE =          27.0185          MASS STORAGE =           0.5000
    CNST H MASS FLUX =           0.0000      CNST H MASS FLUX =           0.0000
      WELL MASS FLUX =           0.0000        WELL MASS FLUX =           0.0000

            TOTAL IN =          27.0185              TOTAL IN =           0.5000

          OUT:                                     OUT:
          ----                                     ----
        MASS STORAGE =           0.2827          MASS STORAGE =           0.0000
    CNST H MASS FLUX =           0.0000      CNST H MASS FLUX =           0.0000
      WELL MASS FLUX =          26.7357        WELL MASS FLUX =           0.5000

           TOTAL OUT =          27.0185             TOTAL OUT =           0.5000

            IN - OUT =       8.7610E-12              IN - OUT =           0.0000

 PERCENT DISCREPANCY =           0.00     PERCENT DISCREPANCY =           0.00






          TIME SUMMARY AT END OF TIME STEP         9 IN STRESS PERIOD         2
                    SECONDS     MINUTES      HOURS       DAYS        YEARS
                    -----------------------------------------------------------
   TIME STEP LENGTH 4.29341E+05  7155.7      119.26      4.9692     1.36050E-02
 STRESS PERIOD TIME 2.07679E+06  34613.      576.89      24.037     6.58095E-02
         TOTAL TIME 4.66879E+06  77813.      1296.9      54.037     0.14795    
1
 -------------------------------------------------------------------------------------
 
 SOLVING FOR HEAD 

 Outer-Iteration  Inner-Iteration  Backtracking  Number of        Incoming       Outgoing  Maximum HeadChange      Maximum Head Change
     Number           Count           Flag       Backtracks       Residual       Residual           Value              Location
        1                             0             0          0.490774E-01     0.490774E-01
        1                7                                                                       -0.597671                   590           GWF-node number
        1                7                                                                       -0.323489                     3           CLN-node number
        2                             0             0          0.710400E-14     0.710400E-14
        2                1                                                                       -0.561544E-07               416           GWF-node number
        2                1                                                                        0.181542E-07                 3           CLN-node number
     2 CALLS TO SPARSE MATRIX SOLVER PACKAGE  IN FLOW TIME STEP      10 STRESS PERIOD       2

 TOTAL OF       2OUTER ITERATIONS
  MAXIMUM CHANGE FOR EACH ITERATION:
   MAX. CHANGE        NODE  MAX. CHANGE        NODE  MAX. CHANGE        NODE  MAX. CHANGE        NODE  MAX. CHANGE        NODE
 ------------------------------------------------------------------------------------------------------------------------------------
  -0.59767    ,        590 -0.56154E-07,        416

  MAXIMUM CHANGE FOR CLN NODE AT EACH ITERATION:
   MAX. CHANGE    CLN-CELL  MAX. CHANGE    CLN-CELL  MAX. CHANGE    CLN-CELL  MAX. CHANGE    CLN-CELL  MAX. CHANGE    CLN-CELL
 ------------------------------------------------------------------------------------------------------------------------------------
  -0.32349    ,          3  0.18154E-07,          3

 HEAD/DRAWDOWN PRINTOUT FLAG = 1     TOTAL BUDGET PRINTOUT FLAG = 1
 CELL-BY-CELL FLOW TERM FLAG = 1
 CONCENTRATION PRINTOUT FLAG = 1

 OUTPUT FLAGS FOR ALL LAYERS ARE THE SAME:
   HEAD    DRAWDOWN  HEAD  DRAWDOWN    CONC    CONC
 PRINTOUT  PRINTOUT  SAVE    SAVE    PRINTOUT  SAVE
 ---------------------------------------------------
     0         0       1       1       0       1
 UBUDSVU SAVING "         STORAGE" ON UNIT  50 AT TIME STEP     10, STRESS PERIOD      2
 UBUDSV SAVING "     CLN STORAGE" ON UNIT 144 AT TIME STEP     10, STRESS PERIOD       2
 UBUDSVU SAVING "   CONSTANT HEAD" ON UNIT  50 AT TIME STEP     10, STRESS PERIOD      2
 UBUDSVU SAVING "   FLOW JA FACE " ON UNIT  50 AT TIME STEP     10, STRESS PERIOD      2
 UBUDSVU SAVING "             CLN" ON UNIT  50 AT TIME STEP     10, STRESS PERIOD      2
 UBUDSVU SAVING "  CLN CONST HEAD" ON UNIT 144 AT TIME STEP     10, STRESS PERIOD      2
 UBUDSVU SAVING "   FLOW CLN FACE" ON UNIT 144 AT TIME STEP     10, STRESS PERIOD      2
 UBUDSVU SAVING "             GWF" ON UNIT 144 AT TIME STEP     10, STRESS PERIOD      2
 UBUDSVU SAVING "           WELLS" ON UNIT  50 AT TIME STEP     10, STRESS PERIOD      2
 UBUDSVU SAVING "           WELLS" ON UNIT 144 AT TIME STEP     10, STRESS PERIOD      2

 HEAD WILL BE SAVED ON UNIT       30 AT END OF TIME STEP       10, STRESS PERIOD        2

 DRAWDOWN WILL BE SAVED ON UNIT   31 AT END OF TIME STEP  10, STRESS PERIOD    2

 CLN HEAD WILL BE SAVED ON UNIT   77 AT END OF TIME STEP  10, STRESS PERIOD    2
1
  VOLUMETRIC BUDGET FOR ENTIRE MODEL AT END OF TIME STEP      10 IN STRESS PERIOD       2
  ---------------------------------------------------------------------------------------

     CUMULATIVE VOLUMES      L**3       RATES FOR THIS TIME STEP      L**3/T
     ------------------                 ------------------------

           IN:                                      IN:
           ---                                      ---
             STORAGE =         300.0000               STORAGE =           5.0000
         CLN STORAGE =           0.0000           CLN STORAGE =           0.0000
       CONSTANT HEAD =           0.0000         CONSTANT HEAD =           0.0000
      CLN CONST HEAD =           0.0000        CLN CONST HEAD =           0.0000
               WELLS =           0.0000                 WELLS =           0.0000

            TOTAL IN =         300.0000              TOTAL IN =           5.0000

          OUT:                                     OUT:
          ----                                     ----
             STORAGE =           0.0000               STORAGE =           0.0000
         CLN STORAGE =           0.0000           CLN STORAGE =           0.0000
       CONSTANT HEAD =           0.0000         CONSTANT HEAD =           0.0000
      CLN CONST HEAD =           0.0000        CLN CONST HEAD =           0.0000
               WELLS =         300.0000                 WELLS =           5.0000

           TOTAL OUT =         300.0000             TOTAL OUT =           5.0000

            IN - OUT =       3.3657E-06              IN - OUT =      -2.1009E-08

 PERCENT DISCREPANCY =           0.00     PERCENT DISCREPANCY =          -0.00






          TIME SUMMARY AT END OF TIME STEP        10 IN STRESS PERIOD         2
                    SECONDS     MINUTES      HOURS       DAYS        YEARS
                    -----------------------------------------------------------
   TIME STEP LENGTH 5.15209E+05  8586.8      143.11      5.9631     1.63260E-02
 STRESS PERIOD TIME 2.59200E+06  43200.      720.00      30.000     8.21355E-02
         TOTAL TIME 5.18400E+06  86400.      1440.0      60.000     0.16427    
1
 ------------------------------------------------------------------------------------------------------------
 
 SOLVING FOR TRANSPORT 

 ------------------------------------------------------------------------------------------------------------------------
     1 CALLS TO SPARSE MATRIX SOLVER PACKAGE IN TRANSPORT TIME STEP      10 STRESS PERIOD       2 SPECIES  1

 TOTAL OF       1OUTER ITERATIONS
  MAXIMUM CHANGE FOR EACH ITERATION:
   MAX. CHANGE        NODE  MAX. CHANGE        NODE  MAX. CHANGE        NODE  MAX. CHANGE        NODE  MAX. CHANGE        NODE
 ------------------------------------------------------------------------------------------------------------------------------------
   0.38329E-11,        190

  MAXIMUM CHANGE FOR CLN NODE AT EACH ITERATION:
   MAX. CHANGE    CLN-CELL  MAX. CHANGE    CLN-CELL  MAX. CHANGE    CLN-CELL  MAX. CHANGE    CLN-CELL  MAX. CHANGE    CLN-CELL
 ------------------------------------------------------------------------------------------------------------------------------------
   0.16031E-08,          2
     TRANSPORT SOLUTION COMPLETE FOR COMPONENT SPECIES NUMBER    1
     ------------------------------------------------------------
 UBUDSVU SAVING "    MASS STORAGE" ON UNIT 145 AT TIME STEP     10, STRESS PERIOD      2
 UBUDSVU SAVING "CLN MASS STORAGE" ON UNIT 145 AT TIME STEP     10, STRESS PERIOD      2
 UBUDSVU SAVING "CNST H MASS FLUX" ON UNIT 145 AT TIME STEP     10, STRESS PERIOD      2
 UBUDSVU SAVING "  WELL MASS FLUX" ON UNIT 145 AT TIME STEP     10, STRESS PERIOD      2

 TRANSPORT SOLUTION COMPLETE FOR ALL SPECIES, SORTING OUTPUT FOR CONCENTRATIONS AND MASS BALANCE
 ----------------------------------------------------------------------------------------------------
     TRANSPORT OUTPUT FOR COMPONENT SPECIES NUMBER    1
     ------------------------------------------------------------

 CONC WILL BE SAVED ON UNIT  132 AT END OF TIME STEP       10, STRESS PERIOD        2

 CLN CONC WILL BE SAVED ON UNIT  188 AT END OF TIME STEP  10, STRESS PERIOD    2
1
  VOLUMETRIC BUDGET FOR ENTIRE MODEL AT END OF TIME STEP      10 IN STRESS PERIOD       2
  ---------------------------------------------------------------------------------------

     CUMULATIVE VOLUMES      L**3       RATES FOR THIS TIME STEP      L**3/T
     ------------------                 ------------------------

           IN:                                      IN:
           ---                                      ---
        MASS STORAGE =          30.0000          MASS STORAGE =           0.5000
    CNST H MASS FLUX =           0.0000      CNST H MASS FLUX =           0.0000
      WELL MASS FLUX =           0.0000        WELL MASS FLUX =           0.0000

            TOTAL IN =          30.0000              TOTAL IN =           0.5000

          OUT:                                     OUT:
          ----                                     ----
        MASS STORAGE =           0.2827          MASS STORAGE =       2.8519E-10
    CNST H MASS FLUX =           0.0000      CNST H MASS FLUX =           0.0000
      WELL MASS FLUX =          29.7173        WELL MASS FLUX =           0.5000

           TOTAL OUT =          30.0000             TOTAL OUT =           0.5000

            IN - OUT =       1.2861E-11              IN - OUT =      -2.8519E-10

 PERCENT DISCREPANCY =           0.00     PERCENT DISCREPANCY =          -0.00






          TIME SUMMARY AT END OF TIME STEP        10 IN STRESS PERIOD         2
                    SECONDS     MINUTES      HOURS       DAYS        YEARS
                    -----------------------------------------------------------
   TIME STEP LENGTH 5.15209E+05  8586.8      143.11      5.9631     1.63260E-02
 STRESS PERIOD TIME 2.59200E+06  43200.      720.00      30.000     8.21355E-02
         TOTAL TIME 5.18400E+06  86400.      1440.0      60.000     0.16427    
1
1
                            STRESS PERIOD NO.    3, LENGTH =   30.00000    
                            -----------------------------------------------

                              NUMBER OF TIME STEPS =        10

                               MULTIPLIER FOR DELT =     1.200

                            INITIAL TIME STEP SIZE =   1.155682    

 WEL -- WELL PACKAGE, VERSION 7, 5/2/2005 INPUT READ FROM UNIT   12

 WELL NO.  CLN-NODE       STRESS FACTOR         C01             
 ---------------------------------------------------------------
        1            3      -5.000           0.000           0.000    

      1 WELL 
 -------------------------------------------------------------------------------------
 
 SOLVING FOR HEAD 

 Outer-Iteration  Inner-Iteration  Backtracking  Number of        Incoming       Outgoing  Maximum HeadChange      Maximum Head Change
     Number           Count           Flag       Backtracks       Residual       Residual           Value              Location
        1                             0             0          0.485808E-01     0.485808E-01
        1                5                                                                       -0.113248                   590           GWF-node number
        1                5                                                                       -0.623982E-01                 3           CLN-node number
        2                             0             0          0.822712E-14     0.822712E-14
        2                1                                                                       -0.812777E-07               190           GWF-node number
        2                1                                                                       -0.225417E-06                 2           CLN-node number


     2 CALLS TO SPARSE MATRIX SOLVER PACKAGE  IN FLOW TIME STEP       1 STRESS PERIOD       3

 TOTAL OF       2OUTER ITERATIONS
  MAXIMUM CHANGE FOR EACH ITERATION:
   MAX. CHANGE        NODE  MAX. CHANGE        NODE  MAX. CHANGE        NODE  MAX. CHANGE        NODE  MAX. CHANGE        NODE
 ------------------------------------------------------------------------------------------------------------------------------------
  -0.11325    ,        590 -0.81278E-07,        190

  MAXIMUM CHANGE FOR CLN NODE AT EACH ITERATION:
   MAX. CHANGE    CLN-CELL  MAX. CHANGE    CLN-CELL  MAX. CHANGE    CLN-CELL  MAX. CHANGE    CLN-CELL  MAX. CHANGE    CLN-CELL
 ------------------------------------------------------------------------------------------------------------------------------------
  -0.62398E-01,          3 -0.22542E-06,          2

 HEAD/DRAWDOWN PRINTOUT FLAG = 1     TOTAL BUDGET PRINTOUT FLAG = 1
 CELL-BY-CELL FLOW TERM FLAG = 1
 CONCENTRATION PRINTOUT FLAG = 1

 OUTPUT FLAGS FOR ALL LAYERS ARE THE SAME:
   HEAD    DRAWDOWN  HEAD  DRAWDOWN    CONC    CONC
 PRINTOUT  PRINTOUT  SAVE    SAVE    PRINTOUT  SAVE
 ---------------------------------------------------
     0         0       1       1       0       1
 UBUDSVU SAVING "         STORAGE" ON UNIT  50 AT TIME STEP      1, STRESS PERIOD      3
 UBUDSV SAVING "     CLN STORAGE" ON UNIT 144 AT TIME STEP      1, STRESS PERIOD       3
 UBUDSVU SAVING "   CONSTANT HEAD" ON UNIT  50 AT TIME STEP      1, STRESS PERIOD      3
 UBUDSVU SAVING "   FLOW JA FACE " ON UNIT  50 AT TIME STEP      1, STRESS PERIOD      3
 UBUDSVU SAVING "             CLN" ON UNIT  50 AT TIME STEP      1, STRESS PERIOD      3
 UBUDSVU SAVING "  CLN CONST HEAD" ON UNIT 144 AT TIME STEP      1, STRESS PERIOD      3
 UBUDSVU SAVING "   FLOW CLN FACE" ON UNIT 144 AT TIME STEP      1, STRESS PERIOD      3
 UBUDSVU SAVING "             GWF" ON UNIT 144 AT TIME STEP      1, STRESS PERIOD      3
 UBUDSVU SAVING "           WELLS" ON UNIT  50 AT TIME STEP      1, STRESS PERIOD      3
 UBUDSVU SAVING "           WELLS" ON UNIT 144 AT TIME STEP      1, STRESS PERIOD      3

 HEAD WILL BE SAVED ON UNIT       30 AT END OF TIME STEP        1, STRESS PERIOD        3

 DRAWDOWN WILL BE SAVED ON UNIT   31 AT END OF TIME STEP   1, STRESS PERIOD    3

 CLN HEAD WILL BE SAVED ON UNIT   77 AT END OF TIME STEP   1, STRESS PERIOD    3
1
  VOLUMETRIC BUDGET FOR ENTIRE MODEL AT END OF TIME STEP       1 IN STRESS PERIOD       3
  ---------------------------------------------------------------------------------------

     CUMULATIVE VOLUMES      L**3       RATES FOR THIS TIME STEP      L**3/T
     ------------------                 ------------------------

           IN:                                      IN:
           ---                                      ---
             STORAGE =         305.7784               STORAGE =           5.0000
         CLN STORAGE =           0.0000           CLN STORAGE =           0.0000
       CONSTANT HEAD =           0.0000         CONSTANT HEAD =           0.0000
      CLN CONST HEAD =           0.0000        CLN CONST HEAD =           0.0000
               WELLS =           0.0000                 WELLS =           0.0000

            TOTAL IN =         305.7784              TOTAL IN =           5.0000

          OUT:                                     OUT:
          ----                                     ----
             STORAGE =           0.0000               STORAGE =           0.0000
         CLN STORAGE =           0.0000           CLN STORAGE =           0.0000
       CONSTANT HEAD =           0.0000         CONSTANT HEAD =           0.0000
      CLN CONST HEAD =           0.0000        CLN CONST HEAD =           0.0000
               WELLS =         305.7784                 WELLS =           5.0000

           TOTAL OUT =         305.7784             TOTAL OUT =           5.0000

            IN - OUT =       3.4402E-06              IN - OUT =       6.4417E-08

 PERCENT DISCREPANCY =           0.00     PERCENT DISCREPANCY =           0.00






          TIME SUMMARY AT END OF TIME STEP         1 IN STRESS PERIOD         3
                    SECONDS     MINUTES      HOURS       DAYS        YEARS
                    -----------------------------------------------------------
   TIME STEP LENGTH  99851.      1664.2      27.736      1.1557     3.16409E-03
 STRESS PERIOD TIME  99851.      1664.2      27.736      1.1557     3.16409E-03
         TOTAL TIME 5.28385E+06  88064.      1467.7      61.156     0.16744    
1
 ------------------------------------------------------------------------------------------------------------
 
 SOLVING FOR TRANSPORT 

 ------------------------------------------------------------------------------------------------------------------------
     1 CALLS TO SPARSE MATRIX SOLVER PACKAGE IN TRANSPORT TIME STEP       1 STRESS PERIOD       3 SPECIES  1

 TOTAL OF       1OUTER ITERATIONS
  MAXIMUM CHANGE FOR EACH ITERATION:
   MAX. CHANGE        NODE  MAX. CHANGE        NODE  MAX. CHANGE        NODE  MAX. CHANGE        NODE  MAX. CHANGE        NODE
 ------------------------------------------------------------------------------------------------------------------------------------
  -0.96311E-11,        191

  MAXIMUM CHANGE FOR CLN NODE AT EACH ITERATION:
   MAX. CHANGE    CLN-CELL  MAX. CHANGE    CLN-CELL  MAX. CHANGE    CLN-CELL  MAX. CHANGE    CLN-CELL  MAX. CHANGE    CLN-CELL
 ------------------------------------------------------------------------------------------------------------------------------------
   0.26339E-08,          2
     TRANSPORT SOLUTION COMPLETE FOR COMPONENT SPECIES NUMBER    1
     ------------------------------------------------------------
 UBUDSVU SAVING "    MASS STORAGE" ON UNIT 145 AT TIME STEP      1, STRESS PERIOD      3
 UBUDSVU SAVING "CLN MASS STORAGE" ON UNIT 145 AT TIME STEP      1, STRESS PERIOD      3
 UBUDSVU SAVING "CNST H MASS FLUX" ON UNIT 145 AT TIME STEP      1, STRESS PERIOD      3
 UBUDSVU SAVING "  WELL MASS FLUX" ON UNIT 145 AT TIME STEP      1, STRESS PERIOD      3

 TRANSPORT SOLUTION COMPLETE FOR ALL SPECIES, SORTING OUTPUT FOR CONCENTRATIONS AND MASS BALANCE
 ----------------------------------------------------------------------------------------------------
     TRANSPORT OUTPUT FOR COMPONENT SPECIES NUMBER    1
     ------------------------------------------------------------

 CONC WILL BE SAVED ON UNIT  132 AT END OF TIME STEP        1, STRESS PERIOD        3

 CLN CONC WILL BE SAVED ON UNIT  188 AT END OF TIME STEP   1, STRESS PERIOD    3
1
  VOLUMETRIC BUDGET FOR ENTIRE MODEL AT END OF TIME STEP       1 IN STRESS PERIOD       3
  ---------------------------------------------------------------------------------------

     CUMULATIVE VOLUMES      L**3       RATES FOR THIS TIME STEP      L**3/T
     ------------------                 ------------------------

           IN:                                      IN:
           ---                                      ---
        MASS STORAGE =          30.5778          MASS STORAGE =           0.5000
    CNST H MASS FLUX =           0.0000      CNST H MASS FLUX =           0.0000
      WELL MASS FLUX =           0.0000        WELL MASS FLUX =           0.0000

            TOTAL IN =          30.5778              TOTAL IN =           0.5000

          OUT:                                     OUT:
          ----                                     ----
        MASS STORAGE =           0.2827          MASS STORAGE =       2.9432E-09
    CNST H MASS FLUX =           0.0000      CNST H MASS FLUX =           0.0000
      WELL MASS FLUX =          30.2951        WELL MASS FLUX =           0.5000

           TOTAL OUT =          30.5778             TOTAL OUT =           0.5000

            IN - OUT =       1.2445E-11              IN - OUT =      -2.9432E-09

 PERCENT DISCREPANCY =           0.00     PERCENT DISCREPANCY =          -0.00






          TIME SUMMARY AT END OF TIME STEP         1 IN STRESS PERIOD         3
                    SECONDS     MINUTES      HOURS       DAYS        YEARS
                    -----------------------------------------------------------
   TIME STEP LENGTH  99851.      1664.2      27.736      1.1557     3.16409E-03
 STRESS PERIOD TIME  99851.      1664.2      27.736      1.1557     3.16409E-03
         TOTAL TIME 5.28385E+06  88064.      1467.7      61.156     0.16744    
1
 -------------------------------------------------------------------------------------
 
 SOLVING FOR HEAD 

 Outer-Iteration  Inner-Iteration  Backtracking  Number of        Incoming       Outgoing  Maximum HeadChange      Maximum Head Change
     Number           Count           Flag       Backtracks       Residual       Residual           Value              Location
        1                             0             0          0.484892E-01     0.484892E-01
        1                5                                                                       -0.132347                   590           GWF-node number
        1                5                                                                       -0.744870E-01                 1           CLN-node number
        2                             0             0          0.967787E-14     0.967787E-14
        2                1                                                                        0.444665E-07               190           GWF-node number
        2                1                                                                        0.126965E-06                 1           CLN-node number
     2 CALLS TO SPARSE MATRIX SOLVER PACKAGE  IN FLOW TIME STEP       2 STRESS PERIOD       3

 TOTAL OF       2OUTER ITERATIONS
  MAXIMUM CHANGE FOR EACH ITERATION:
   MAX. CHANGE        NODE  MAX. CHANGE        NODE  MAX. CHANGE        NODE  MAX. CHANGE        NODE  MAX. CHANGE        NODE
 ------------------------------------------------------------------------------------------------------------------------------------
  -0.13235    ,        590  0.44467E-07,        190

  MAXIMUM CHANGE FOR CLN NODE AT EACH ITERATION:
   MAX. CHANGE    CLN-CELL  MAX. CHANGE    CLN-CELL  MAX. CHANGE    CLN-CELL  MAX. CHANGE    CLN-CELL  MAX. CHANGE    CLN-CELL
 ------------------------------------------------------------------------------------------------------------------------------------
  -0.74487E-01,          1  0.12697E-06,          1

 HEAD/DRAWDOWN PRINTOUT FLAG = 1     TOTAL BUDGET PRINTOUT FLAG = 1
 CELL-BY-CELL FLOW TERM FLAG = 1
 CONCENTRATION PRINTOUT FLAG = 1

 OUTPUT FLAGS FOR ALL LAYERS ARE THE SAME:
   HEAD    DRAWDOWN  HEAD  DRAWDOWN    CONC    CONC
 PRINTOUT  PRINTOUT  SAVE    SAVE    PRINTOUT  SAVE
 ---------------------------------------------------
     0         0       1       1       0       1
 UBUDSVU SAVING "         STORAGE" ON UNIT  50 AT TIME STEP      2, STRESS PERIOD      3
 UBUDSV SAVING "     CLN STORAGE" ON UNIT 144 AT TIME STEP      2, STRESS PERIOD       3
 UBUDSVU SAVING "   CONSTANT HEAD" ON UNIT  50 AT TIME STEP      2, STRESS PERIOD      3
 UBUDSVU SAVING "   FLOW JA FACE " ON UNIT  50 AT TIME STEP      2, STRESS PERIOD      3
 UBUDSVU SAVING "             CLN" ON UNIT  50 AT TIME STEP      2, STRESS PERIOD      3
 UBUDSVU SAVING "  CLN CONST HEAD" ON UNIT 144 AT TIME STEP      2, STRESS PERIOD      3
 UBUDSVU SAVING "   FLOW CLN FACE" ON UNIT 144 AT TIME STEP      2, STRESS PERIOD      3
 UBUDSVU SAVING "             GWF" ON UNIT 144 AT TIME STEP      2, STRESS PERIOD      3
 UBUDSVU SAVING "           WELLS" ON UNIT  50 AT TIME STEP      2, STRESS PERIOD      3
 UBUDSVU SAVING "           WELLS" ON UNIT 144 AT TIME STEP      2, STRESS PERIOD      3

 HEAD WILL BE SAVED ON UNIT       30 AT END OF TIME STEP        2, STRESS PERIOD        3

 DRAWDOWN WILL BE SAVED ON UNIT   31 AT END OF TIME STEP   2, STRESS PERIOD    3

 CLN HEAD WILL BE SAVED ON UNIT   77 AT END OF TIME STEP   2, STRESS PERIOD    3
1
  VOLUMETRIC BUDGET FOR ENTIRE MODEL AT END OF TIME STEP       2 IN STRESS PERIOD       3
  ---------------------------------------------------------------------------------------

     CUMULATIVE VOLUMES      L**3       RATES FOR THIS TIME STEP      L**3/T
     ------------------                 ------------------------

           IN:                                      IN:
           ---                                      ---
             STORAGE =         312.7125               STORAGE =           5.0000
         CLN STORAGE =           0.0000           CLN STORAGE =           0.0000
       CONSTANT HEAD =           0.0000         CONSTANT HEAD =           0.0000
      CLN CONST HEAD =           0.0000        CLN CONST HEAD =           0.0000
               WELLS =           0.0000                 WELLS =           0.0000

            TOTAL IN =         312.7125              TOTAL IN =           5.0000

          OUT:                                     OUT:
          ----                                     ----
             STORAGE =           0.0000               STORAGE =           0.0000
         CLN STORAGE =           0.0000           CLN STORAGE =           0.0000
       CONSTANT HEAD =           0.0000         CONSTANT HEAD =           0.0000
      CLN CONST HEAD =           0.0000        CLN CONST HEAD =           0.0000
               WELLS =         312.7125                 WELLS =           5.0000

           TOTAL OUT =         312.7125             TOTAL OUT =           5.0000

            IN - OUT =       3.4827E-06              IN - OUT =       3.0712E-08

 PERCENT DISCREPANCY =           0.00     PERCENT DISCREPANCY =           0.00






          TIME SUMMARY AT END OF TIME STEP         2 IN STRESS PERIOD         3
                    SECONDS     MINUTES      HOURS       DAYS        YEARS
                    -----------------------------------------------------------
   TIME STEP LENGTH 1.19821E+05  1997.0      33.284      1.3868     3.79690E-03
 STRESS PERIOD TIME 2.19672E+05  3661.2      61.020      2.5425     6.96099E-03
         TOTAL TIME 5.40367E+06  90061.      1501.0      62.542     0.17123    
1
 ------------------------------------------------------------------------------------------------------------
 
 SOLVING FOR TRANSPORT 

 ------------------------------------------------------------------------------------------------------------------------
     1 CALLS TO SPARSE MATRIX SOLVER PACKAGE IN TRANSPORT TIME STEP       2 STRESS PERIOD       3 SPECIES  1

 TOTAL OF       1OUTER ITERATIONS
  MAXIMUM CHANGE FOR EACH ITERATION:
   MAX. CHANGE        NODE  MAX. CHANGE        NODE  MAX. CHANGE        NODE  MAX. CHANGE        NODE  MAX. CHANGE        NODE
 ------------------------------------------------------------------------------------------------------------------------------------
   0.59883E-11,        191

  MAXIMUM CHANGE FOR CLN NODE AT EACH ITERATION:
   MAX. CHANGE    CLN-CELL  MAX. CHANGE    CLN-CELL  MAX. CHANGE    CLN-CELL  MAX. CHANGE    CLN-CELL  MAX. CHANGE    CLN-CELL
 ------------------------------------------------------------------------------------------------------------------------------------
  -0.23486E-08,          2
     TRANSPORT SOLUTION COMPLETE FOR COMPONENT SPECIES NUMBER    1
     ------------------------------------------------------------
 UBUDSVU SAVING "    MASS STORAGE" ON UNIT 145 AT TIME STEP      2, STRESS PERIOD      3
 UBUDSVU SAVING "CLN MASS STORAGE" ON UNIT 145 AT TIME STEP      2, STRESS PERIOD      3
 UBUDSVU SAVING "CNST H MASS FLUX" ON UNIT 145 AT TIME STEP      2, STRESS PERIOD      3
 UBUDSVU SAVING "  WELL MASS FLUX" ON UNIT 145 AT TIME STEP      2, STRESS PERIOD      3

 TRANSPORT SOLUTION COMPLETE FOR ALL SPECIES, SORTING OUTPUT FOR CONCENTRATIONS AND MASS BALANCE
 ----------------------------------------------------------------------------------------------------
     TRANSPORT OUTPUT FOR COMPONENT SPECIES NUMBER    1
     ------------------------------------------------------------

 CONC WILL BE SAVED ON UNIT  132 AT END OF TIME STEP        2, STRESS PERIOD        3

 CLN CONC WILL BE SAVED ON UNIT  188 AT END OF TIME STEP   2, STRESS PERIOD    3
1
  VOLUMETRIC BUDGET FOR ENTIRE MODEL AT END OF TIME STEP       2 IN STRESS PERIOD       3
  ---------------------------------------------------------------------------------------

     CUMULATIVE VOLUMES      L**3       RATES FOR THIS TIME STEP      L**3/T
     ------------------                 ------------------------

           IN:                                      IN:
           ---                                      ---
        MASS STORAGE =          31.2713          MASS STORAGE =           0.5000
    CNST H MASS FLUX =           0.0000      CNST H MASS FLUX =           0.0000
      WELL MASS FLUX =           0.0000        WELL MASS FLUX =           0.0000

            TOTAL IN =          31.2713              TOTAL IN =           0.5000

          OUT:                                     OUT:
          ----                                     ----
        MASS STORAGE =           0.2827          MASS STORAGE =           0.0000
    CNST H MASS FLUX =           0.0000      CNST H MASS FLUX =           0.0000
      WELL MASS FLUX =          30.9885        WELL MASS FLUX =           0.5000

           TOTAL OUT =          31.2713             TOTAL OUT =           0.5000

            IN - OUT =       1.2776E-11              IN - OUT =           0.0000

 PERCENT DISCREPANCY =           0.00     PERCENT DISCREPANCY =           0.00






          TIME SUMMARY AT END OF TIME STEP         2 IN STRESS PERIOD         3
                    SECONDS     MINUTES      HOURS       DAYS        YEARS
                    -----------------------------------------------------------
   TIME STEP LENGTH 1.19821E+05  1997.0      33.284      1.3868     3.79690E-03
 STRESS PERIOD TIME 2.19672E+05  3661.2      61.020      2.5425     6.96099E-03
         TOTAL TIME 5.40367E+06  90061.      1501.0      62.542     0.17123    
1
 -------------------------------------------------------------------------------------
 
 SOLVING FOR HEAD 

 Outer-Iteration  Inner-Iteration  Backtracking  Number of        Incoming       Outgoing  Maximum HeadChange      Maximum Head Change
     Number           Count           Flag       Backtracks       Residual       Residual           Value              Location
        1                             0             0          0.483822E-01     0.483822E-01
        1                5                                                                       -0.153987                   590           GWF-node number
        1                5                                                                       -0.888765E-01                 1           CLN-node number
        2                             0             0          0.199995E-13     0.199995E-13
        2                1                                                                        0.790906E-07               190           GWF-node number
        2                1                                                                        0.230814E-06                 1           CLN-node number
     2 CALLS TO SPARSE MATRIX SOLVER PACKAGE  IN FLOW TIME STEP       3 STRESS PERIOD       3

 TOTAL OF       2OUTER ITERATIONS
  MAXIMUM CHANGE FOR EACH ITERATION:
   MAX. CHANGE        NODE  MAX. CHANGE        NODE  MAX. CHANGE        NODE  MAX. CHANGE        NODE  MAX. CHANGE        NODE
 ------------------------------------------------------------------------------------------------------------------------------------
  -0.15399    ,        590  0.79091E-07,        190

  MAXIMUM CHANGE FOR CLN NODE AT EACH ITERATION:
   MAX. CHANGE    CLN-CELL  MAX. CHANGE    CLN-CELL  MAX. CHANGE    CLN-CELL  MAX. CHANGE    CLN-CELL  MAX. CHANGE    CLN-CELL
 ------------------------------------------------------------------------------------------------------------------------------------
  -0.88876E-01,          1  0.23081E-06,          1

 HEAD/DRAWDOWN PRINTOUT FLAG = 1     TOTAL BUDGET PRINTOUT FLAG = 1
 CELL-BY-CELL FLOW TERM FLAG = 1
 CONCENTRATION PRINTOUT FLAG = 1

 OUTPUT FLAGS FOR ALL LAYERS ARE THE SAME:
   HEAD    DRAWDOWN  HEAD  DRAWDOWN    CONC    CONC
 PRINTOUT  PRINTOUT  SAVE    SAVE    PRINTOUT  SAVE
 ---------------------------------------------------
     0         0       1       1       0       1
 UBUDSVU SAVING "         STORAGE" ON UNIT  50 AT TIME STEP      3, STRESS PERIOD      3
 UBUDSV SAVING "     CLN STORAGE" ON UNIT 144 AT TIME STEP      3, STRESS PERIOD       3
 UBUDSVU SAVING "   CONSTANT HEAD" ON UNIT  50 AT TIME STEP      3, STRESS PERIOD      3
 UBUDSVU SAVING "   FLOW JA FACE " ON UNIT  50 AT TIME STEP      3, STRESS PERIOD      3
 UBUDSVU SAVING "             CLN" ON UNIT  50 AT TIME STEP      3, STRESS PERIOD      3
 UBUDSVU SAVING "  CLN CONST HEAD" ON UNIT 144 AT TIME STEP      3, STRESS PERIOD      3
 UBUDSVU SAVING "   FLOW CLN FACE" ON UNIT 144 AT TIME STEP      3, STRESS PERIOD      3
 UBUDSVU SAVING "             GWF" ON UNIT 144 AT TIME STEP      3, STRESS PERIOD      3
 UBUDSVU SAVING "           WELLS" ON UNIT  50 AT TIME STEP      3, STRESS PERIOD      3
 UBUDSVU SAVING "           WELLS" ON UNIT 144 AT TIME STEP      3, STRESS PERIOD      3

 HEAD WILL BE SAVED ON UNIT       30 AT END OF TIME STEP        3, STRESS PERIOD        3

 DRAWDOWN WILL BE SAVED ON UNIT   31 AT END OF TIME STEP   3, STRESS PERIOD    3

 CLN HEAD WILL BE SAVED ON UNIT   77 AT END OF TIME STEP   3, STRESS PERIOD    3
1
  VOLUMETRIC BUDGET FOR ENTIRE MODEL AT END OF TIME STEP       3 IN STRESS PERIOD       3
  ---------------------------------------------------------------------------------------

     CUMULATIVE VOLUMES      L**3       RATES FOR THIS TIME STEP      L**3/T
     ------------------                 ------------------------

           IN:                                      IN:
           ---                                      ---
             STORAGE =         321.0334               STORAGE =           5.0000
         CLN STORAGE =           0.0000           CLN STORAGE =           0.0000
       CONSTANT HEAD =           0.0000         CONSTANT HEAD =           0.0000
      CLN CONST HEAD =           0.0000        CLN CONST HEAD =           0.0000
               WELLS =           0.0000                 WELLS =           0.0000

            TOTAL IN =         321.0334              TOTAL IN =           5.0000

          OUT:                                     OUT:
          ----                                     ----
             STORAGE =           0.0000               STORAGE =           0.0000
         CLN STORAGE =           0.0000           CLN STORAGE =           0.0000
       CONSTANT HEAD =           0.0000         CONSTANT HEAD =           0.0000
      CLN CONST HEAD =           0.0000        CLN CONST HEAD =           0.0000
               WELLS =         321.0334                 WELLS =           5.0000

           TOTAL OUT =         321.0334             TOTAL OUT =           5.0000

            IN - OUT =       3.7095E-06              IN - OUT =       1.3626E-07

 PERCENT DISCREPANCY =           0.00     PERCENT DISCREPANCY =           0.00






          TIME SUMMARY AT END OF TIME STEP         3 IN STRESS PERIOD         3
                    SECONDS     MINUTES      HOURS       DAYS        YEARS
                    -----------------------------------------------------------
   TIME STEP LENGTH 1.43785E+05  2396.4      39.940      1.6642     4.55628E-03
 STRESS PERIOD TIME 3.63458E+05  6057.6      100.96      4.2067     1.15173E-02
         TOTAL TIME 5.54746E+06  92458.      1541.0      64.207     0.17579    
1
 ------------------------------------------------------------------------------------------------------------
 
 SOLVING FOR TRANSPORT 

 ------------------------------------------------------------------------------------------------------------------------
     1 CALLS TO SPARSE MATRIX SOLVER PACKAGE IN TRANSPORT TIME STEP       3 STRESS PERIOD       3 SPECIES  1

 TOTAL OF       1OUTER ITERATIONS
  MAXIMUM CHANGE FOR EACH ITERATION:
   MAX. CHANGE        NODE  MAX. CHANGE        NODE  MAX. CHANGE        NODE  MAX. CHANGE        NODE  MAX. CHANGE        NODE
 ------------------------------------------------------------------------------------------------------------------------------------
   0.13808E-10,        191

  MAXIMUM CHANGE FOR CLN NODE AT EACH ITERATION:
   MAX. CHANGE    CLN-CELL  MAX. CHANGE    CLN-CELL  MAX. CHANGE    CLN-CELL  MAX. CHANGE    CLN-CELL  MAX. CHANGE    CLN-CELL
 ------------------------------------------------------------------------------------------------------------------------------------
   0.10660E-08,          3
     TRANSPORT SOLUTION COMPLETE FOR COMPONENT SPECIES NUMBER    1
     ------------------------------------------------------------
 UBUDSVU SAVING "    MASS STORAGE" ON UNIT 145 AT TIME STEP      3, STRESS PERIOD      3
 UBUDSVU SAVING "CLN MASS STORAGE" ON UNIT 145 AT TIME STEP      3, STRESS PERIOD      3
 UBUDSVU SAVING "CNST H MASS FLUX" ON UNIT 145 AT TIME STEP      3, STRESS PERIOD      3
 UBUDSVU SAVING "  WELL MASS FLUX" ON UNIT 145 AT TIME STEP      3, STRESS PERIOD      3

 TRANSPORT SOLUTION COMPLETE FOR ALL SPECIES, SORTING OUTPUT FOR CONCENTRATIONS AND MASS BALANCE
 ----------------------------------------------------------------------------------------------------
     TRANSPORT OUTPUT FOR COMPONENT SPECIES NUMBER    1
     ------------------------------------------------------------

 CONC WILL BE SAVED ON UNIT  132 AT END OF TIME STEP        3, STRESS PERIOD        3

 CLN CONC WILL BE SAVED ON UNIT  188 AT END OF TIME STEP   3, STRESS PERIOD    3
1
  VOLUMETRIC BUDGET FOR ENTIRE MODEL AT END OF TIME STEP       3 IN STRESS PERIOD       3
  ---------------------------------------------------------------------------------------

     CUMULATIVE VOLUMES      L**3       RATES FOR THIS TIME STEP      L**3/T
     ------------------                 ------------------------

           IN:                                      IN:
           ---                                      ---
        MASS STORAGE =          32.1033          MASS STORAGE =           0.5000
    CNST H MASS FLUX =           0.0000      CNST H MASS FLUX =           0.0000
      WELL MASS FLUX =           0.0000        WELL MASS FLUX =           0.0000

            TOTAL IN =          32.1033              TOTAL IN =           0.5000

          OUT:                                     OUT:
          ----                                     ----
        MASS STORAGE =           0.2827          MASS STORAGE =       8.7382E-10
    CNST H MASS FLUX =           0.0000      CNST H MASS FLUX =           0.0000
      WELL MASS FLUX =          31.8206        WELL MASS FLUX =           0.5000

           TOTAL OUT =          32.1033             TOTAL OUT =           0.5000

            IN - OUT =       1.5305E-11              IN - OUT =      -8.7382E-10

 PERCENT DISCREPANCY =           0.00     PERCENT DISCREPANCY =          -0.00






          TIME SUMMARY AT END OF TIME STEP         3 IN STRESS PERIOD         3
                    SECONDS     MINUTES      HOURS       DAYS        YEARS
                    -----------------------------------------------------------
   TIME STEP LENGTH 1.43785E+05  2396.4      39.940      1.6642     4.55628E-03
 STRESS PERIOD TIME 3.63458E+05  6057.6      100.96      4.2067     1.15173E-02
         TOTAL TIME 5.54746E+06  92458.      1541.0      64.207     0.17579    
1
 -------------------------------------------------------------------------------------
 
 SOLVING FOR HEAD 

 Outer-Iteration  Inner-Iteration  Backtracking  Number of        Incoming       Outgoing  Maximum HeadChange      Maximum Head Change
     Number           Count           Flag       Backtracks       Residual       Residual           Value              Location
        1                             0             0          0.482577E-01     0.482577E-01
        1                5                                                                       -0.178287                   590           GWF-node number
        1                5                                                                       -0.105997                     1           CLN-node number
        2                             0             0          0.498460E-14     0.498460E-14
        2                1                                                                       -0.773620E-07               190           GWF-node number
        2                1                                                                       -0.137154E-06                 3           CLN-node number
     2 CALLS TO SPARSE MATRIX SOLVER PACKAGE  IN FLOW TIME STEP       4 STRESS PERIOD       3

 TOTAL OF       2OUTER ITERATIONS
  MAXIMUM CHANGE FOR EACH ITERATION:
   MAX. CHANGE        NODE  MAX. CHANGE        NODE  MAX. CHANGE        NODE  MAX. CHANGE        NODE  MAX. CHANGE        NODE
 ------------------------------------------------------------------------------------------------------------------------------------
  -0.17829    ,        590 -0.77362E-07,        190

  MAXIMUM CHANGE FOR CLN NODE AT EACH ITERATION:
   MAX. CHANGE    CLN-CELL  MAX. CHANGE    CLN-CELL  MAX. CHANGE    CLN-CELL  MAX. CHANGE    CLN-CELL  MAX. CHANGE    CLN-CELL
 ------------------------------------------------------------------------------------------------------------------------------------
  -0.10600    ,          1 -0.13715E-06,          3

 HEAD/DRAWDOWN PRINTOUT FLAG = 1     TOTAL BUDGET PRINTOUT FLAG = 1
 CELL-BY-CELL FLOW TERM FLAG = 1
 CONCENTRATION PRINTOUT FLAG = 1

 OUTPUT FLAGS FOR ALL LAYERS ARE THE SAME:
   HEAD    DRAWDOWN  HEAD  DRAWDOWN    CONC    CONC
 PRINTOUT  PRINTOUT  SAVE    SAVE    PRINTOUT  SAVE
 ---------------------------------------------------
     0         0       1       1       0       1
 UBUDSVU SAVING "         STORAGE" ON UNIT  50 AT TIME STEP      4, STRESS PERIOD      3
 UBUDSV SAVING "     CLN STORAGE" ON UNIT 144 AT TIME STEP      4, STRESS PERIOD       3
 UBUDSVU SAVING "   CONSTANT HEAD" ON UNIT  50 AT TIME STEP      4, STRESS PERIOD      3
 UBUDSVU SAVING "   FLOW JA FACE " ON UNIT  50 AT TIME STEP      4, STRESS PERIOD      3
 UBUDSVU SAVING "             CLN" ON UNIT  50 AT TIME STEP      4, STRESS PERIOD      3
 UBUDSVU SAVING "  CLN CONST HEAD" ON UNIT 144 AT TIME STEP      4, STRESS PERIOD      3
 UBUDSVU SAVING "   FLOW CLN FACE" ON UNIT 144 AT TIME STEP      4, STRESS PERIOD      3
 UBUDSVU SAVING "             GWF" ON UNIT 144 AT TIME STEP      4, STRESS PERIOD      3
 UBUDSVU SAVING "           WELLS" ON UNIT  50 AT TIME STEP      4, STRESS PERIOD      3
 UBUDSVU SAVING "           WELLS" ON UNIT 144 AT TIME STEP      4, STRESS PERIOD      3

 HEAD WILL BE SAVED ON UNIT       30 AT END OF TIME STEP        4, STRESS PERIOD        3

 DRAWDOWN WILL BE SAVED ON UNIT   31 AT END OF TIME STEP   4, STRESS PERIOD    3

 CLN HEAD WILL BE SAVED ON UNIT   77 AT END OF TIME STEP   4, STRESS PERIOD    3
1
  VOLUMETRIC BUDGET FOR ENTIRE MODEL AT END OF TIME STEP       4 IN STRESS PERIOD       3
  ---------------------------------------------------------------------------------------

     CUMULATIVE VOLUMES      L**3       RATES FOR THIS TIME STEP      L**3/T
     ------------------                 ------------------------

           IN:                                      IN:
           ---                                      ---
             STORAGE =         331.0185               STORAGE =           5.0000
         CLN STORAGE =           0.0000           CLN STORAGE =           0.0000
       CONSTANT HEAD =           0.0000         CONSTANT HEAD =           0.0000
      CLN CONST HEAD =           0.0000        CLN CONST HEAD =           0.0000
               WELLS =           0.0000                 WELLS =           0.0000

            TOTAL IN =         331.0185              TOTAL IN =           5.0000

          OUT:                                     OUT:
          ----                                     ----
             STORAGE =           0.0000               STORAGE =           0.0000
         CLN STORAGE =           0.0000           CLN STORAGE =           0.0000
       CONSTANT HEAD =           0.0000         CONSTANT HEAD =           0.0000
      CLN CONST HEAD =           0.0000        CLN CONST HEAD =           0.0000
               WELLS =         331.0185                 WELLS =           5.0000

           TOTAL OUT =         331.0185             TOTAL OUT =           5.0000

            IN - OUT =       3.6340E-06              IN - OUT =      -3.7808E-08

 PERCENT DISCREPANCY =           0.00     PERCENT DISCREPANCY =          -0.00






          TIME SUMMARY AT END OF TIME STEP         4 IN STRESS PERIOD         3
                    SECONDS     MINUTES      HOURS       DAYS        YEARS
                    -----------------------------------------------------------
   TIME STEP LENGTH 1.72542E+05  2875.7      47.928      1.9970     5.46754E-03
 STRESS PERIOD TIME 5.36000E+05  8933.3      148.89      6.2037     1.69848E-02
         TOTAL TIME 5.72000E+06  95333.      1588.9      66.204     0.18126    
1
 ------------------------------------------------------------------------------------------------------------
 
 SOLVING FOR TRANSPORT 

 ------------------------------------------------------------------------------------------------------------------------
     1 CALLS TO SPARSE MATRIX SOLVER PACKAGE IN TRANSPORT TIME STEP       4 STRESS PERIOD       3 SPECIES  1

 TOTAL OF       1OUTER ITERATIONS
  MAXIMUM CHANGE FOR EACH ITERATION:
   MAX. CHANGE        NODE  MAX. CHANGE        NODE  MAX. CHANGE        NODE  MAX. CHANGE        NODE  MAX. CHANGE        NODE
 ------------------------------------------------------------------------------------------------------------------------------------
  -0.11381E-10,        191

  MAXIMUM CHANGE FOR CLN NODE AT EACH ITERATION:
   MAX. CHANGE    CLN-CELL  MAX. CHANGE    CLN-CELL  MAX. CHANGE    CLN-CELL  MAX. CHANGE    CLN-CELL  MAX. CHANGE    CLN-CELL
 ------------------------------------------------------------------------------------------------------------------------------------
  -0.18358E-08,          3
     TRANSPORT SOLUTION COMPLETE FOR COMPONENT SPECIES NUMBER    1
     ------------------------------------------------------------
 UBUDSVU SAVING "    MASS STORAGE" ON UNIT 145 AT TIME STEP      4, STRESS PERIOD      3
 UBUDSVU SAVING "CLN MASS STORAGE" ON UNIT 145 AT TIME STEP      4, STRESS PERIOD      3
 UBUDSVU SAVING "CNST H MASS FLUX" ON UNIT 145 AT TIME STEP      4, STRESS PERIOD      3
 UBUDSVU SAVING "  WELL MASS FLUX" ON UNIT 145 AT TIME STEP      4, STRESS PERIOD      3

 TRANSPORT SOLUTION COMPLETE FOR ALL SPECIES, SORTING OUTPUT FOR CONCENTRATIONS AND MASS BALANCE
 ----------------------------------------------------------------------------------------------------
     TRANSPORT OUTPUT FOR COMPONENT SPECIES NUMBER    1
     ------------------------------------------------------------

 CONC WILL BE SAVED ON UNIT  132 AT END OF TIME STEP        4, STRESS PERIOD        3

 CLN CONC WILL BE SAVED ON UNIT  188 AT END OF TIME STEP   4, STRESS PERIOD    3
1
  VOLUMETRIC BUDGET FOR ENTIRE MODEL AT END OF TIME STEP       4 IN STRESS PERIOD       3
  ---------------------------------------------------------------------------------------

     CUMULATIVE VOLUMES      L**3       RATES FOR THIS TIME STEP      L**3/T
     ------------------                 ------------------------

           IN:                                      IN:
           ---                                      ---
        MASS STORAGE =          33.1019          MASS STORAGE =           0.5000
    CNST H MASS FLUX =           0.0000      CNST H MASS FLUX =           0.0000
      WELL MASS FLUX =           0.0000        WELL MASS FLUX =           0.0000

            TOTAL IN =          33.1019              TOTAL IN =           0.5000

          OUT:                                     OUT:
          ----                                     ----
        MASS STORAGE =           0.2827          MASS STORAGE =       7.3686E-10
    CNST H MASS FLUX =           0.0000      CNST H MASS FLUX =           0.0000
      WELL MASS FLUX =          32.8191        WELL MASS FLUX =           0.5000

           TOTAL OUT =          33.1019             TOTAL OUT =           0.5000

            IN - OUT =       1.2719E-11              IN - OUT =      -7.3686E-10

 PERCENT DISCREPANCY =           0.00     PERCENT DISCREPANCY =          -0.00






          TIME SUMMARY AT END OF TIME STEP         4 IN STRESS PERIOD         3
                    SECONDS     MINUTES      HOURS       DAYS        YEARS
                    -----------------------------------------------------------
   TIME STEP LENGTH 1.72542E+05  2875.7      47.928      1.9970     5.46754E-03
 STRESS PERIOD TIME 5.36000E+05  8933.3      148.89      6.2037     1.69848E-02
         TOTAL TIME 5.72000E+06  95333.      1588.9      66.204     0.18126    
1
 -------------------------------------------------------------------------------------
 
 SOLVING FOR HEAD 

 Outer-Iteration  Inner-Iteration  Backtracking  Number of        Incoming       Outgoing  Maximum HeadChange      Maximum Head Change
     Number           Count           Flag       Backtracks       Residual       Residual           Value              Location
        1                             0             0          0.481133E-01     0.481133E-01
        1                6                                                                       -0.205321                   590           GWF-node number
        1                6                                                                       -0.126369                     1           CLN-node number
        2                             0             0          0.888748E-15     0.888748E-15
        2                1                                                                       -0.197019E-07               190           GWF-node number
        2                1                                                                       -0.487996E-07                 3           CLN-node number
     2 CALLS TO SPARSE MATRIX SOLVER PACKAGE  IN FLOW TIME STEP       5 STRESS PERIOD       3

 TOTAL OF       2OUTER ITERATIONS
  MAXIMUM CHANGE FOR EACH ITERATION:
   MAX. CHANGE        NODE  MAX. CHANGE        NODE  MAX. CHANGE        NODE  MAX. CHANGE        NODE  MAX. CHANGE        NODE
 ------------------------------------------------------------------------------------------------------------------------------------
  -0.20532    ,        590 -0.19702E-07,        190

  MAXIMUM CHANGE FOR CLN NODE AT EACH ITERATION:
   MAX. CHANGE    CLN-CELL  MAX. CHANGE    CLN-CELL  MAX. CHANGE    CLN-CELL  MAX. CHANGE    CLN-CELL  MAX. CHANGE    CLN-CELL
 ------------------------------------------------------------------------------------------------------------------------------------
  -0.12637    ,          1 -0.48800E-07,          3

 HEAD/DRAWDOWN PRINTOUT FLAG = 1     TOTAL BUDGET PRINTOUT FLAG = 1
 CELL-BY-CELL FLOW TERM FLAG = 1
 CONCENTRATION PRINTOUT FLAG = 1

 OUTPUT FLAGS FOR ALL LAYERS ARE THE SAME:
   HEAD    DRAWDOWN  HEAD  DRAWDOWN    CONC    CONC
 PRINTOUT  PRINTOUT  SAVE    SAVE    PRINTOUT  SAVE
 ---------------------------------------------------
     0         0       1       1       0       1
 UBUDSVU SAVING "         STORAGE" ON UNIT  50 AT TIME STEP      5, STRESS PERIOD      3
 UBUDSV SAVING "     CLN STORAGE" ON UNIT 144 AT TIME STEP      5, STRESS PERIOD       3
 UBUDSVU SAVING "   CONSTANT HEAD" ON UNIT  50 AT TIME STEP      5, STRESS PERIOD      3
 UBUDSVU SAVING "   FLOW JA FACE " ON UNIT  50 AT TIME STEP      5, STRESS PERIOD      3
 UBUDSVU SAVING "             CLN" ON UNIT  50 AT TIME STEP      5, STRESS PERIOD      3
 UBUDSVU SAVING "  CLN CONST HEAD" ON UNIT 144 AT TIME STEP      5, STRESS PERIOD      3
 UBUDSVU SAVING "   FLOW CLN FACE" ON UNIT 144 AT TIME STEP      5, STRESS PERIOD      3
 UBUDSVU SAVING "             GWF" ON UNIT 144 AT TIME STEP      5, STRESS PERIOD      3
 UBUDSVU SAVING "           WELLS" ON UNIT  50 AT TIME STEP      5, STRESS PERIOD      3
 UBUDSVU SAVING "           WELLS" ON UNIT 144 AT TIME STEP      5, STRESS PERIOD      3

 HEAD WILL BE SAVED ON UNIT       30 AT END OF TIME STEP        5, STRESS PERIOD        3

 DRAWDOWN WILL BE SAVED ON UNIT   31 AT END OF TIME STEP   5, STRESS PERIOD    3

 CLN HEAD WILL BE SAVED ON UNIT   77 AT END OF TIME STEP   5, STRESS PERIOD    3
1
  VOLUMETRIC BUDGET FOR ENTIRE MODEL AT END OF TIME STEP       5 IN STRESS PERIOD       3
  ---------------------------------------------------------------------------------------

     CUMULATIVE VOLUMES      L**3       RATES FOR THIS TIME STEP      L**3/T
     ------------------                 ------------------------

           IN:                                      IN:
           ---                                      ---
             STORAGE =         343.0006               STORAGE =           5.0000
         CLN STORAGE =           0.0000           CLN STORAGE =           0.0000
       CONSTANT HEAD =           0.0000         CONSTANT HEAD =           0.0000
      CLN CONST HEAD =           0.0000        CLN CONST HEAD =           0.0000
               WELLS =           0.0000                 WELLS =           0.0000

            TOTAL IN =         343.0006              TOTAL IN =           5.0000

          OUT:                                     OUT:
          ----                                     ----
             STORAGE =           0.0000               STORAGE =           0.0000
         CLN STORAGE =           0.0000           CLN STORAGE =           0.0000
       CONSTANT HEAD =           0.0000         CONSTANT HEAD =           0.0000
      CLN CONST HEAD =           0.0000        CLN CONST HEAD =           0.0000
               WELLS =         343.0006                 WELLS =           5.0000

           TOTAL OUT =         343.0006             TOTAL OUT =           5.0000

            IN - OUT =       3.8132E-06              IN - OUT =       7.4790E-08

 PERCENT DISCREPANCY =           0.00     PERCENT DISCREPANCY =           0.00






          TIME SUMMARY AT END OF TIME STEP         5 IN STRESS PERIOD         3
                    SECONDS     MINUTES      HOURS       DAYS        YEARS
                    -----------------------------------------------------------
   TIME STEP LENGTH 2.07051E+05  3450.8      57.514      2.3964     6.56105E-03
 STRESS PERIOD TIME 7.43051E+05  12384.      206.40      8.6001     2.35459E-02
         TOTAL TIME 5.92705E+06  98784.      1646.4      68.600     0.18782    
1
 ------------------------------------------------------------------------------------------------------------
 
 SOLVING FOR TRANSPORT 

 ------------------------------------------------------------------------------------------------------------------------
     1 CALLS TO SPARSE MATRIX SOLVER PACKAGE IN TRANSPORT TIME STEP       5 STRESS PERIOD       3 SPECIES  1

 TOTAL OF       1OUTER ITERATIONS
  MAXIMUM CHANGE FOR EACH ITERATION:
   MAX. CHANGE        NODE  MAX. CHANGE        NODE  MAX. CHANGE        NODE  MAX. CHANGE        NODE  MAX. CHANGE        NODE
 ------------------------------------------------------------------------------------------------------------------------------------
  -0.54296E-11,        191

  MAXIMUM CHANGE FOR CLN NODE AT EACH ITERATION:
   MAX. CHANGE    CLN-CELL  MAX. CHANGE    CLN-CELL  MAX. CHANGE    CLN-CELL  MAX. CHANGE    CLN-CELL  MAX. CHANGE    CLN-CELL
 ------------------------------------------------------------------------------------------------------------------------------------
   0.27583E-08,          2
     TRANSPORT SOLUTION COMPLETE FOR COMPONENT SPECIES NUMBER    1
     ------------------------------------------------------------
 UBUDSVU SAVING "    MASS STORAGE" ON UNIT 145 AT TIME STEP      5, STRESS PERIOD      3
 UBUDSVU SAVING "CLN MASS STORAGE" ON UNIT 145 AT TIME STEP      5, STRESS PERIOD      3
 UBUDSVU SAVING "CNST H MASS FLUX" ON UNIT 145 AT TIME STEP      5, STRESS PERIOD      3
 UBUDSVU SAVING "  WELL MASS FLUX" ON UNIT 145 AT TIME STEP      5, STRESS PERIOD      3

 TRANSPORT SOLUTION COMPLETE FOR ALL SPECIES, SORTING OUTPUT FOR CONCENTRATIONS AND MASS BALANCE
 ----------------------------------------------------------------------------------------------------
     TRANSPORT OUTPUT FOR COMPONENT SPECIES NUMBER    1
     ------------------------------------------------------------

 CONC WILL BE SAVED ON UNIT  132 AT END OF TIME STEP        5, STRESS PERIOD        3

 CLN CONC WILL BE SAVED ON UNIT  188 AT END OF TIME STEP   5, STRESS PERIOD    3
1
  VOLUMETRIC BUDGET FOR ENTIRE MODEL AT END OF TIME STEP       5 IN STRESS PERIOD       3
  ---------------------------------------------------------------------------------------

     CUMULATIVE VOLUMES      L**3       RATES FOR THIS TIME STEP      L**3/T
     ------------------                 ------------------------

           IN:                                      IN:
           ---                                      ---
        MASS STORAGE =          34.3001          MASS STORAGE =           0.5000
    CNST H MASS FLUX =           0.0000      CNST H MASS FLUX =           0.0000
      WELL MASS FLUX =           0.0000        WELL MASS FLUX =           0.0000

            TOTAL IN =          34.3001              TOTAL IN =           0.5000

          OUT:                                     OUT:
          ----                                     ----
        MASS STORAGE =           0.2827          MASS STORAGE =       1.0232E-09
    CNST H MASS FLUX =           0.0000      CNST H MASS FLUX =           0.0000
      WELL MASS FLUX =          34.0173        WELL MASS FLUX =           0.5000

           TOTAL OUT =          34.3001             TOTAL OUT =           0.5000

            IN - OUT =       1.1312E-11              IN - OUT =      -1.0232E-09

 PERCENT DISCREPANCY =           0.00     PERCENT DISCREPANCY =          -0.00






          TIME SUMMARY AT END OF TIME STEP         5 IN STRESS PERIOD         3
                    SECONDS     MINUTES      HOURS       DAYS        YEARS
                    -----------------------------------------------------------
   TIME STEP LENGTH 2.07051E+05  3450.8      57.514      2.3964     6.56105E-03
 STRESS PERIOD TIME 7.43051E+05  12384.      206.40      8.6001     2.35459E-02
         TOTAL TIME 5.92705E+06  98784.      1646.4      68.600     0.18782    
1
 -------------------------------------------------------------------------------------
 
 SOLVING FOR HEAD 

 Outer-Iteration  Inner-Iteration  Backtracking  Number of        Incoming       Outgoing  Maximum HeadChange      Maximum Head Change
     Number           Count           Flag       Backtracks       Residual       Residual           Value              Location
        1                             0             0          0.479464E-01     0.479464E-01
        1                6                                                                       -0.235119                   590           GWF-node number
        1                6                                                                       -0.150605                     1           CLN-node number
        2                             0             0          0.860430E-14     0.860430E-14
        2                1                                                                       -0.383921E-07               190           GWF-node number
        2                1                                                                       -0.909635E-07                 2           CLN-node number
     2 CALLS TO SPARSE MATRIX SOLVER PACKAGE  IN FLOW TIME STEP       6 STRESS PERIOD       3

 TOTAL OF       2OUTER ITERATIONS
  MAXIMUM CHANGE FOR EACH ITERATION:
   MAX. CHANGE        NODE  MAX. CHANGE        NODE  MAX. CHANGE        NODE  MAX. CHANGE        NODE  MAX. CHANGE        NODE
 ------------------------------------------------------------------------------------------------------------------------------------
  -0.23512    ,        590 -0.38392E-07,        190

  MAXIMUM CHANGE FOR CLN NODE AT EACH ITERATION:
   MAX. CHANGE    CLN-CELL  MAX. CHANGE    CLN-CELL  MAX. CHANGE    CLN-CELL  MAX. CHANGE    CLN-CELL  MAX. CHANGE    CLN-CELL
 ------------------------------------------------------------------------------------------------------------------------------------
  -0.15061    ,          1 -0.90963E-07,          2

 HEAD/DRAWDOWN PRINTOUT FLAG = 1     TOTAL BUDGET PRINTOUT FLAG = 1
 CELL-BY-CELL FLOW TERM FLAG = 1
 CONCENTRATION PRINTOUT FLAG = 1

 OUTPUT FLAGS FOR ALL LAYERS ARE THE SAME:
   HEAD    DRAWDOWN  HEAD  DRAWDOWN    CONC    CONC
 PRINTOUT  PRINTOUT  SAVE    SAVE    PRINTOUT  SAVE
 ---------------------------------------------------
     0         0       1       1       0       1
 UBUDSVU SAVING "         STORAGE" ON UNIT  50 AT TIME STEP      6, STRESS PERIOD      3
 UBUDSV SAVING "     CLN STORAGE" ON UNIT 144 AT TIME STEP      6, STRESS PERIOD       3
 UBUDSVU SAVING "   CONSTANT HEAD" ON UNIT  50 AT TIME STEP      6, STRESS PERIOD      3
 UBUDSVU SAVING "   FLOW JA FACE " ON UNIT  50 AT TIME STEP      6, STRESS PERIOD      3
 UBUDSVU SAVING "             CLN" ON UNIT  50 AT TIME STEP      6, STRESS PERIOD      3
 UBUDSVU SAVING "  CLN CONST HEAD" ON UNIT 144 AT TIME STEP      6, STRESS PERIOD      3
 UBUDSVU SAVING "   FLOW CLN FACE" ON UNIT 144 AT TIME STEP      6, STRESS PERIOD      3
 UBUDSVU SAVING "             GWF" ON UNIT 144 AT TIME STEP      6, STRESS PERIOD      3
 UBUDSVU SAVING "           WELLS" ON UNIT  50 AT TIME STEP      6, STRESS PERIOD      3
 UBUDSVU SAVING "           WELLS" ON UNIT 144 AT TIME STEP      6, STRESS PERIOD      3

 HEAD WILL BE SAVED ON UNIT       30 AT END OF TIME STEP        6, STRESS PERIOD        3

 DRAWDOWN WILL BE SAVED ON UNIT   31 AT END OF TIME STEP   6, STRESS PERIOD    3

 CLN HEAD WILL BE SAVED ON UNIT   77 AT END OF TIME STEP   6, STRESS PERIOD    3
1
  VOLUMETRIC BUDGET FOR ENTIRE MODEL AT END OF TIME STEP       6 IN STRESS PERIOD       3
  ---------------------------------------------------------------------------------------

     CUMULATIVE VOLUMES      L**3       RATES FOR THIS TIME STEP      L**3/T
     ------------------                 ------------------------

           IN:                                      IN:
           ---                                      ---
             STORAGE =         357.3792               STORAGE =           5.0000
         CLN STORAGE =           0.0000           CLN STORAGE =           0.0000
       CONSTANT HEAD =           0.0000         CONSTANT HEAD =           0.0000
      CLN CONST HEAD =           0.0000        CLN CONST HEAD =           0.0000
               WELLS =           0.0000                 WELLS =           0.0000

            TOTAL IN =         357.3792              TOTAL IN =           5.0000

          OUT:                                     OUT:
          ----                                     ----
             STORAGE =           0.0000               STORAGE =           0.0000
         CLN STORAGE =           0.0000           CLN STORAGE =           0.0000
       CONSTANT HEAD =           0.0000         CONSTANT HEAD =           0.0000
      CLN CONST HEAD =           0.0000        CLN CONST HEAD =           0.0000
               WELLS =         357.3792                 WELLS =           5.0000

           TOTAL OUT =         357.3792             TOTAL OUT =           5.0000

            IN - OUT =       3.8359E-06              IN - OUT =       7.8765E-09

 PERCENT DISCREPANCY =           0.00     PERCENT DISCREPANCY =           0.00






          TIME SUMMARY AT END OF TIME STEP         6 IN STRESS PERIOD         3
                    SECONDS     MINUTES      HOURS       DAYS        YEARS
                    -----------------------------------------------------------
   TIME STEP LENGTH 2.48461E+05  4141.0      69.017      2.8757     7.87326E-03
 STRESS PERIOD TIME 9.91512E+05  16525.      275.42      11.476     3.14191E-02
         TOTAL TIME 6.17551E+06 1.02925E+05  1715.4      71.476     0.19569    
1
 ------------------------------------------------------------------------------------------------------------
 
 SOLVING FOR TRANSPORT 

 ------------------------------------------------------------------------------------------------------------------------
     1 CALLS TO SPARSE MATRIX SOLVER PACKAGE IN TRANSPORT TIME STEP       6 STRESS PERIOD       3 SPECIES  1

 TOTAL OF       1OUTER ITERATIONS
  MAXIMUM CHANGE FOR EACH ITERATION:
   MAX. CHANGE        NODE  MAX. CHANGE        NODE  MAX. CHANGE        NODE  MAX. CHANGE        NODE  MAX. CHANGE        NODE
 ------------------------------------------------------------------------------------------------------------------------------------
  -0.11394E-10,        191

  MAXIMUM CHANGE FOR CLN NODE AT EACH ITERATION:
   MAX. CHANGE    CLN-CELL  MAX. CHANGE    CLN-CELL  MAX. CHANGE    CLN-CELL  MAX. CHANGE    CLN-CELL  MAX. CHANGE    CLN-CELL
 ------------------------------------------------------------------------------------------------------------------------------------
  -0.82397E-09,          1
     TRANSPORT SOLUTION COMPLETE FOR COMPONENT SPECIES NUMBER    1
     ------------------------------------------------------------
 UBUDSVU SAVING "    MASS STORAGE" ON UNIT 145 AT TIME STEP      6, STRESS PERIOD      3
 UBUDSVU SAVING "CLN MASS STORAGE" ON UNIT 145 AT TIME STEP      6, STRESS PERIOD      3
 UBUDSVU SAVING "CNST H MASS FLUX" ON UNIT 145 AT TIME STEP      6, STRESS PERIOD      3
 UBUDSVU SAVING "  WELL MASS FLUX" ON UNIT 145 AT TIME STEP      6, STRESS PERIOD      3

 TRANSPORT SOLUTION COMPLETE FOR ALL SPECIES, SORTING OUTPUT FOR CONCENTRATIONS AND MASS BALANCE
 ----------------------------------------------------------------------------------------------------
     TRANSPORT OUTPUT FOR COMPONENT SPECIES NUMBER    1
     ------------------------------------------------------------

 CONC WILL BE SAVED ON UNIT  132 AT END OF TIME STEP        6, STRESS PERIOD        3

 CLN CONC WILL BE SAVED ON UNIT  188 AT END OF TIME STEP   6, STRESS PERIOD    3
1
  VOLUMETRIC BUDGET FOR ENTIRE MODEL AT END OF TIME STEP       6 IN STRESS PERIOD       3
  ---------------------------------------------------------------------------------------

     CUMULATIVE VOLUMES      L**3       RATES FOR THIS TIME STEP      L**3/T
     ------------------                 ------------------------

           IN:                                      IN:
           ---                                      ---
        MASS STORAGE =          35.7379          MASS STORAGE =           0.5000
    CNST H MASS FLUX =           0.0000      CNST H MASS FLUX =           0.0000
      WELL MASS FLUX =           0.0000        WELL MASS FLUX =           0.0000

            TOTAL IN =          35.7379              TOTAL IN =           0.5000

          OUT:                                     OUT:
          ----                                     ----
        MASS STORAGE =           0.2827          MASS STORAGE =           0.0000
    CNST H MASS FLUX =           0.0000      CNST H MASS FLUX =           0.0000
      WELL MASS FLUX =          35.4552        WELL MASS FLUX =           0.5000

           TOTAL OUT =          35.7379             TOTAL OUT =           0.5000

            IN - OUT =       1.1354E-11              IN - OUT =           0.0000

 PERCENT DISCREPANCY =           0.00     PERCENT DISCREPANCY =           0.00






          TIME SUMMARY AT END OF TIME STEP         6 IN STRESS PERIOD         3
                    SECONDS     MINUTES      HOURS       DAYS        YEARS
                    -----------------------------------------------------------
   TIME STEP LENGTH 2.48461E+05  4141.0      69.017      2.8757     7.87326E-03
 STRESS PERIOD TIME 9.91512E+05  16525.      275.42      11.476     3.14191E-02
         TOTAL TIME 6.17551E+06 1.02925E+05  1715.4      71.476     0.19569    
1
 -------------------------------------------------------------------------------------
 
 SOLVING FOR HEAD 

 Outer-Iteration  Inner-Iteration  Backtracking  Number of        Incoming       Outgoing  Maximum HeadChange      Maximum Head Change
     Number           Count           Flag       Backtracks       Residual       Residual           Value              Location
        1                             0             0          0.477540E-01     0.477540E-01
        1                6                                                                       -0.267693                   590           GWF-node number
        1                6                                                                       -0.179442                     1           CLN-node number
        2                             0             0          0.145422E-13     0.145422E-13
        2                1                                                                       -0.164688E-06               190           GWF-node number
        2                1                                                                       -0.396378E-06                 2           CLN-node number
     2 CALLS TO SPARSE MATRIX SOLVER PACKAGE  IN FLOW TIME STEP       7 STRESS PERIOD       3

 TOTAL OF       2OUTER ITERATIONS
  MAXIMUM CHANGE FOR EACH ITERATION:
   MAX. CHANGE        NODE  MAX. CHANGE        NODE  MAX. CHANGE        NODE  MAX. CHANGE        NODE  MAX. CHANGE        NODE
 ------------------------------------------------------------------------------------------------------------------------------------
  -0.26769    ,        590 -0.16469E-06,        190

  MAXIMUM CHANGE FOR CLN NODE AT EACH ITERATION:
   MAX. CHANGE    CLN-CELL  MAX. CHANGE    CLN-CELL  MAX. CHANGE    CLN-CELL  MAX. CHANGE    CLN-CELL  MAX. CHANGE    CLN-CELL
 ------------------------------------------------------------------------------------------------------------------------------------
  -0.17944    ,          1 -0.39638E-06,          2

 HEAD/DRAWDOWN PRINTOUT FLAG = 1     TOTAL BUDGET PRINTOUT FLAG = 1
 CELL-BY-CELL FLOW TERM FLAG = 1
 CONCENTRATION PRINTOUT FLAG = 1

 OUTPUT FLAGS FOR ALL LAYERS ARE THE SAME:
   HEAD    DRAWDOWN  HEAD  DRAWDOWN    CONC    CONC
 PRINTOUT  PRINTOUT  SAVE    SAVE    PRINTOUT  SAVE
 ---------------------------------------------------
     0         0       1       1       0       1
 UBUDSVU SAVING "         STORAGE" ON UNIT  50 AT TIME STEP      7, STRESS PERIOD      3
 UBUDSV SAVING "     CLN STORAGE" ON UNIT 144 AT TIME STEP      7, STRESS PERIOD       3
 UBUDSVU SAVING "   CONSTANT HEAD" ON UNIT  50 AT TIME STEP      7, STRESS PERIOD      3
 UBUDSVU SAVING "   FLOW JA FACE " ON UNIT  50 AT TIME STEP      7, STRESS PERIOD      3
 UBUDSVU SAVING "             CLN" ON UNIT  50 AT TIME STEP      7, STRESS PERIOD      3
 UBUDSVU SAVING "  CLN CONST HEAD" ON UNIT 144 AT TIME STEP      7, STRESS PERIOD      3
 UBUDSVU SAVING "   FLOW CLN FACE" ON UNIT 144 AT TIME STEP      7, STRESS PERIOD      3
 UBUDSVU SAVING "             GWF" ON UNIT 144 AT TIME STEP      7, STRESS PERIOD      3
 UBUDSVU SAVING "           WELLS" ON UNIT  50 AT TIME STEP      7, STRESS PERIOD      3
 UBUDSVU SAVING "           WELLS" ON UNIT 144 AT TIME STEP      7, STRESS PERIOD      3

 HEAD WILL BE SAVED ON UNIT       30 AT END OF TIME STEP        7, STRESS PERIOD        3

 DRAWDOWN WILL BE SAVED ON UNIT   31 AT END OF TIME STEP   7, STRESS PERIOD    3

 CLN HEAD WILL BE SAVED ON UNIT   77 AT END OF TIME STEP   7, STRESS PERIOD    3
1
  VOLUMETRIC BUDGET FOR ENTIRE MODEL AT END OF TIME STEP       7 IN STRESS PERIOD       3
  ---------------------------------------------------------------------------------------

     CUMULATIVE VOLUMES      L**3       RATES FOR THIS TIME STEP      L**3/T
     ------------------                 ------------------------

           IN:                                      IN:
           ---                                      ---
             STORAGE =         374.6334               STORAGE =           5.0000
         CLN STORAGE =           0.0000           CLN STORAGE =           0.0000
       CONSTANT HEAD =           0.0000         CONSTANT HEAD =           0.0000
      CLN CONST HEAD =           0.0000        CLN CONST HEAD =           0.0000
               WELLS =           0.0000                 WELLS =           0.0000

            TOTAL IN =         374.6334              TOTAL IN =           5.0000

          OUT:                                     OUT:
          ----                                     ----
             STORAGE =           0.0000               STORAGE =           0.0000
         CLN STORAGE =           0.0000           CLN STORAGE =           0.0000
       CONSTANT HEAD =           0.0000         CONSTANT HEAD =           0.0000
      CLN CONST HEAD =           0.0000        CLN CONST HEAD =           0.0000
               WELLS =         374.6334                 WELLS =           5.0000

           TOTAL OUT =         374.6334             TOTAL OUT =           5.0000

            IN - OUT =       3.9314E-06              IN - OUT =       2.7684E-08

 PERCENT DISCREPANCY =           0.00     PERCENT DISCREPANCY =           0.00






          TIME SUMMARY AT END OF TIME STEP         7 IN STRESS PERIOD         3
                    SECONDS     MINUTES      HOURS       DAYS        YEARS
                    -----------------------------------------------------------
   TIME STEP LENGTH 2.98153E+05  4969.2      82.820      3.4509     9.44791E-03
 STRESS PERIOD TIME 1.28967E+06  21494.      358.24      14.927     4.08670E-02
         TOTAL TIME 6.47367E+06 1.07894E+05  1798.2      74.927     0.20514    
1
 ------------------------------------------------------------------------------------------------------------
 
 SOLVING FOR TRANSPORT 

 ------------------------------------------------------------------------------------------------------------------------
     1 CALLS TO SPARSE MATRIX SOLVER PACKAGE IN TRANSPORT TIME STEP       7 STRESS PERIOD       3 SPECIES  1

 TOTAL OF       1OUTER ITERATIONS
  MAXIMUM CHANGE FOR EACH ITERATION:
   MAX. CHANGE        NODE  MAX. CHANGE        NODE  MAX. CHANGE        NODE  MAX. CHANGE        NODE  MAX. CHANGE        NODE
 ------------------------------------------------------------------------------------------------------------------------------------
  -0.56179E-10,        191

  MAXIMUM CHANGE FOR CLN NODE AT EACH ITERATION:
   MAX. CHANGE    CLN-CELL  MAX. CHANGE    CLN-CELL  MAX. CHANGE    CLN-CELL  MAX. CHANGE    CLN-CELL  MAX. CHANGE    CLN-CELL
 ------------------------------------------------------------------------------------------------------------------------------------
   0.15576E-08,          1
     TRANSPORT SOLUTION COMPLETE FOR COMPONENT SPECIES NUMBER    1
     ------------------------------------------------------------
 UBUDSVU SAVING "    MASS STORAGE" ON UNIT 145 AT TIME STEP      7, STRESS PERIOD      3
 UBUDSVU SAVING "CLN MASS STORAGE" ON UNIT 145 AT TIME STEP      7, STRESS PERIOD      3
 UBUDSVU SAVING "CNST H MASS FLUX" ON UNIT 145 AT TIME STEP      7, STRESS PERIOD      3
 UBUDSVU SAVING "  WELL MASS FLUX" ON UNIT 145 AT TIME STEP      7, STRESS PERIOD      3

 TRANSPORT SOLUTION COMPLETE FOR ALL SPECIES, SORTING OUTPUT FOR CONCENTRATIONS AND MASS BALANCE
 ----------------------------------------------------------------------------------------------------
     TRANSPORT OUTPUT FOR COMPONENT SPECIES NUMBER    1
     ------------------------------------------------------------

 CONC WILL BE SAVED ON UNIT  132 AT END OF TIME STEP        7, STRESS PERIOD        3

 CLN CONC WILL BE SAVED ON UNIT  188 AT END OF TIME STEP   7, STRESS PERIOD    3
1
  VOLUMETRIC BUDGET FOR ENTIRE MODEL AT END OF TIME STEP       7 IN STRESS PERIOD       3
  ---------------------------------------------------------------------------------------

     CUMULATIVE VOLUMES      L**3       RATES FOR THIS TIME STEP      L**3/T
     ------------------                 ------------------------

           IN:                                      IN:
           ---                                      ---
        MASS STORAGE =          37.4633          MASS STORAGE =           0.5000
    CNST H MASS FLUX =           0.0000      CNST H MASS FLUX =           0.0000
      WELL MASS FLUX =           0.0000        WELL MASS FLUX =           0.0000

            TOTAL IN =          37.4633              TOTAL IN =           0.5000

          OUT:                                     OUT:
          ----                                     ----
        MASS STORAGE =           0.2827          MASS STORAGE =       1.1096E-09
    CNST H MASS FLUX =           0.0000      CNST H MASS FLUX =           0.0000
      WELL MASS FLUX =          37.1806        WELL MASS FLUX =           0.5000

           TOTAL OUT =          37.4633             TOTAL OUT =           0.5000

            IN - OUT =      -1.8588E-11              IN - OUT =      -1.1096E-09

 PERCENT DISCREPANCY =          -0.00     PERCENT DISCREPANCY =          -0.00






          TIME SUMMARY AT END OF TIME STEP         7 IN STRESS PERIOD         3
                    SECONDS     MINUTES      HOURS       DAYS        YEARS
                    -----------------------------------------------------------
   TIME STEP LENGTH 2.98153E+05  4969.2      82.820      3.4509     9.44791E-03
 STRESS PERIOD TIME 1.28967E+06  21494.      358.24      14.927     4.08670E-02
         TOTAL TIME 6.47367E+06 1.07894E+05  1798.2      74.927     0.20514    
1
 -------------------------------------------------------------------------------------
 
 SOLVING FOR HEAD 

 Outer-Iteration  Inner-Iteration  Backtracking  Number of        Incoming       Outgoing  Maximum HeadChange      Maximum Head Change
     Number           Count           Flag       Backtracks       Residual       Residual           Value              Location
        1                             0             0          0.475330E-01     0.475330E-01
        1                6                                                                       -0.303095                   590           GWF-node number
        1                6                                                                       -0.213753                     3           CLN-node number
        2                             0             0          0.165010E-13     0.165010E-13
        2                1                                                                        0.178783E-06               401           GWF-node number
        2                1                                                                        0.230657E-06                 3           CLN-node number
     2 CALLS TO SPARSE MATRIX SOLVER PACKAGE  IN FLOW TIME STEP       8 STRESS PERIOD       3

 TOTAL OF       2OUTER ITERATIONS
  MAXIMUM CHANGE FOR EACH ITERATION:
   MAX. CHANGE        NODE  MAX. CHANGE        NODE  MAX. CHANGE        NODE  MAX. CHANGE        NODE  MAX. CHANGE        NODE
 ------------------------------------------------------------------------------------------------------------------------------------
  -0.30310    ,        590  0.17878E-06,        401

  MAXIMUM CHANGE FOR CLN NODE AT EACH ITERATION:
   MAX. CHANGE    CLN-CELL  MAX. CHANGE    CLN-CELL  MAX. CHANGE    CLN-CELL  MAX. CHANGE    CLN-CELL  MAX. CHANGE    CLN-CELL
 ------------------------------------------------------------------------------------------------------------------------------------
  -0.21375    ,          3  0.23066E-06,          3

 HEAD/DRAWDOWN PRINTOUT FLAG = 1     TOTAL BUDGET PRINTOUT FLAG = 1
 CELL-BY-CELL FLOW TERM FLAG = 1
 CONCENTRATION PRINTOUT FLAG = 1

 OUTPUT FLAGS FOR ALL LAYERS ARE THE SAME:
   HEAD    DRAWDOWN  HEAD  DRAWDOWN    CONC    CONC
 PRINTOUT  PRINTOUT  SAVE    SAVE    PRINTOUT  SAVE
 ---------------------------------------------------
     0         0       1       1       0       1
 UBUDSVU SAVING "         STORAGE" ON UNIT  50 AT TIME STEP      8, STRESS PERIOD      3
 UBUDSV SAVING "     CLN STORAGE" ON UNIT 144 AT TIME STEP      8, STRESS PERIOD       3
 UBUDSVU SAVING "   CONSTANT HEAD" ON UNIT  50 AT TIME STEP      8, STRESS PERIOD      3
 UBUDSVU SAVING "   FLOW JA FACE " ON UNIT  50 AT TIME STEP      8, STRESS PERIOD      3
 UBUDSVU SAVING "             CLN" ON UNIT  50 AT TIME STEP      8, STRESS PERIOD      3
 UBUDSVU SAVING "  CLN CONST HEAD" ON UNIT 144 AT TIME STEP      8, STRESS PERIOD      3
 UBUDSVU SAVING "   FLOW CLN FACE" ON UNIT 144 AT TIME STEP      8, STRESS PERIOD      3
 UBUDSVU SAVING "             GWF" ON UNIT 144 AT TIME STEP      8, STRESS PERIOD      3
 UBUDSVU SAVING "           WELLS" ON UNIT  50 AT TIME STEP      8, STRESS PERIOD      3
 UBUDSVU SAVING "           WELLS" ON UNIT 144 AT TIME STEP      8, STRESS PERIOD      3

 HEAD WILL BE SAVED ON UNIT       30 AT END OF TIME STEP        8, STRESS PERIOD        3

 DRAWDOWN WILL BE SAVED ON UNIT   31 AT END OF TIME STEP   8, STRESS PERIOD    3

 CLN HEAD WILL BE SAVED ON UNIT   77 AT END OF TIME STEP   8, STRESS PERIOD    3
1
  VOLUMETRIC BUDGET FOR ENTIRE MODEL AT END OF TIME STEP       8 IN STRESS PERIOD       3
  ---------------------------------------------------------------------------------------

     CUMULATIVE VOLUMES      L**3       RATES FOR THIS TIME STEP      L**3/T
     ------------------                 ------------------------

           IN:                                      IN:
           ---                                      ---
             STORAGE =         395.3385               STORAGE =           5.0000
         CLN STORAGE =           0.0000           CLN STORAGE =           0.0000
       CONSTANT HEAD =           0.0000         CONSTANT HEAD =           0.0000
      CLN CONST HEAD =           0.0000        CLN CONST HEAD =           0.0000
               WELLS =           0.0000                 WELLS =           0.0000

            TOTAL IN =         395.3385              TOTAL IN =           5.0000

          OUT:                                     OUT:
          ----                                     ----
             STORAGE =           0.0000               STORAGE =           0.0000
         CLN STORAGE =           0.0000           CLN STORAGE =           0.0000
       CONSTANT HEAD =           0.0000         CONSTANT HEAD =           0.0000
      CLN CONST HEAD =           0.0000        CLN CONST HEAD =           0.0000
               WELLS =         395.3385                 WELLS =           5.0000

           TOTAL OUT =         395.3385             TOTAL OUT =           5.0000

            IN - OUT =       4.2348E-06              IN - OUT =       7.3263E-08

 PERCENT DISCREPANCY =           0.00     PERCENT DISCREPANCY =           0.00






          TIME SUMMARY AT END OF TIME STEP         8 IN STRESS PERIOD         3
                    SECONDS     MINUTES      HOURS       DAYS        YEARS
                    -----------------------------------------------------------
   TIME STEP LENGTH 3.57784E+05  5963.1      99.384      4.1410     1.13375E-02
 STRESS PERIOD TIME 1.64745E+06  27457.      457.62      19.068     5.22045E-02
         TOTAL TIME 6.83145E+06 1.13857E+05  1897.6      79.068     0.21648    
1
 ------------------------------------------------------------------------------------------------------------
 
 SOLVING FOR TRANSPORT 

 ------------------------------------------------------------------------------------------------------------------------
     1 CALLS TO SPARSE MATRIX SOLVER PACKAGE IN TRANSPORT TIME STEP       8 STRESS PERIOD       3 SPECIES  1

 TOTAL OF       1OUTER ITERATIONS
  MAXIMUM CHANGE FOR EACH ITERATION:
   MAX. CHANGE        NODE  MAX. CHANGE        NODE  MAX. CHANGE        NODE  MAX. CHANGE        NODE  MAX. CHANGE        NODE
 ------------------------------------------------------------------------------------------------------------------------------------
   0.38497E-10,        191

  MAXIMUM CHANGE FOR CLN NODE AT EACH ITERATION:
   MAX. CHANGE    CLN-CELL  MAX. CHANGE    CLN-CELL  MAX. CHANGE    CLN-CELL  MAX. CHANGE    CLN-CELL  MAX. CHANGE    CLN-CELL
 ------------------------------------------------------------------------------------------------------------------------------------
  -0.14457E-08,          2
     TRANSPORT SOLUTION COMPLETE FOR COMPONENT SPECIES NUMBER    1
     ------------------------------------------------------------
 UBUDSVU SAVING "    MASS STORAGE" ON UNIT 145 AT TIME STEP      8, STRESS PERIOD      3
 UBUDSVU SAVING "CLN MASS STORAGE" ON UNIT 145 AT TIME STEP      8, STRESS PERIOD      3
 UBUDSVU SAVING "CNST H MASS FLUX" ON UNIT 145 AT TIME STEP      8, STRESS PERIOD      3
 UBUDSVU SAVING "  WELL MASS FLUX" ON UNIT 145 AT TIME STEP      8, STRESS PERIOD      3

 TRANSPORT SOLUTION COMPLETE FOR ALL SPECIES, SORTING OUTPUT FOR CONCENTRATIONS AND MASS BALANCE
 ----------------------------------------------------------------------------------------------------
     TRANSPORT OUTPUT FOR COMPONENT SPECIES NUMBER    1
     ------------------------------------------------------------

 CONC WILL BE SAVED ON UNIT  132 AT END OF TIME STEP        8, STRESS PERIOD        3

 CLN CONC WILL BE SAVED ON UNIT  188 AT END OF TIME STEP   8, STRESS PERIOD    3
1
  VOLUMETRIC BUDGET FOR ENTIRE MODEL AT END OF TIME STEP       8 IN STRESS PERIOD       3
  ---------------------------------------------------------------------------------------

     CUMULATIVE VOLUMES      L**3       RATES FOR THIS TIME STEP      L**3/T
     ------------------                 ------------------------

           IN:                                      IN:
           ---                                      ---
        MASS STORAGE =          39.5339          MASS STORAGE =           0.5000
    CNST H MASS FLUX =           0.0000      CNST H MASS FLUX =           0.0000
      WELL MASS FLUX =           0.0000        WELL MASS FLUX =           0.0000

            TOTAL IN =          39.5339              TOTAL IN =           0.5000

          OUT:                                     OUT:
          ----                                     ----
        MASS STORAGE =           0.2827          MASS STORAGE =           0.0000
    CNST H MASS FLUX =           0.0000      CNST H MASS FLUX =           0.0000
      WELL MASS FLUX =          39.2511        WELL MASS FLUX =           0.5000

           TOTAL OUT =          39.5339             TOTAL OUT =           0.5000

            IN - OUT =       5.6133E-13              IN - OUT =           0.0000

 PERCENT DISCREPANCY =           0.00     PERCENT DISCREPANCY =           0.00






          TIME SUMMARY AT END OF TIME STEP         8 IN STRESS PERIOD         3
                    SECONDS     MINUTES      HOURS       DAYS        YEARS
                    -----------------------------------------------------------
   TIME STEP LENGTH 3.57784E+05  5963.1      99.384      4.1410     1.13375E-02
 STRESS PERIOD TIME 1.64745E+06  27457.      457.62      19.068     5.22045E-02
         TOTAL TIME 6.83145E+06 1.13857E+05  1897.6      79.068     0.21648    
1
 -------------------------------------------------------------------------------------
 
 SOLVING FOR HEAD 

 Outer-Iteration  Inner-Iteration  Backtracking  Number of        Incoming       Outgoing  Maximum HeadChange      Maximum Head Change
     Number           Count           Flag       Backtracks       Residual       Residual           Value              Location
        1                             0             0          0.472798E-01     0.472798E-01
        1                6                                                                       -0.341515                   590           GWF-node number
        1                6                                                                       -0.254575                     1           CLN-node number
        2                             0             0          0.137564E-12     0.137564E-12
        2                1                                                                        0.518987E-06               417           GWF-node number
        2                1                                                                       -0.149303E-06                 2           CLN-node number
     2 CALLS TO SPARSE MATRIX SOLVER PACKAGE  IN FLOW TIME STEP       9 STRESS PERIOD       3

 TOTAL OF       2OUTER ITERATIONS
  MAXIMUM CHANGE FOR EACH ITERATION:
   MAX. CHANGE        NODE  MAX. CHANGE        NODE  MAX. CHANGE        NODE  MAX. CHANGE        NODE  MAX. CHANGE        NODE
 ------------------------------------------------------------------------------------------------------------------------------------
  -0.34151    ,        590  0.51899E-06,        417

  MAXIMUM CHANGE FOR CLN NODE AT EACH ITERATION:
   MAX. CHANGE    CLN-CELL  MAX. CHANGE    CLN-CELL  MAX. CHANGE    CLN-CELL  MAX. CHANGE    CLN-CELL  MAX. CHANGE    CLN-CELL
 ------------------------------------------------------------------------------------------------------------------------------------
  -0.25457    ,          1 -0.14930E-06,          2

 HEAD/DRAWDOWN PRINTOUT FLAG = 1     TOTAL BUDGET PRINTOUT FLAG = 1
 CELL-BY-CELL FLOW TERM FLAG = 1
 CONCENTRATION PRINTOUT FLAG = 1

 OUTPUT FLAGS FOR ALL LAYERS ARE THE SAME:
   HEAD    DRAWDOWN  HEAD  DRAWDOWN    CONC    CONC
 PRINTOUT  PRINTOUT  SAVE    SAVE    PRINTOUT  SAVE
 ---------------------------------------------------
     0         0       1       1       0       1
 UBUDSVU SAVING "         STORAGE" ON UNIT  50 AT TIME STEP      9, STRESS PERIOD      3
 UBUDSV SAVING "     CLN STORAGE" ON UNIT 144 AT TIME STEP      9, STRESS PERIOD       3
 UBUDSVU SAVING "   CONSTANT HEAD" ON UNIT  50 AT TIME STEP      9, STRESS PERIOD      3
 UBUDSVU SAVING "   FLOW JA FACE " ON UNIT  50 AT TIME STEP      9, STRESS PERIOD      3
 UBUDSVU SAVING "             CLN" ON UNIT  50 AT TIME STEP      9, STRESS PERIOD      3
 UBUDSVU SAVING "  CLN CONST HEAD" ON UNIT 144 AT TIME STEP      9, STRESS PERIOD      3
 UBUDSVU SAVING "   FLOW CLN FACE" ON UNIT 144 AT TIME STEP      9, STRESS PERIOD      3
 UBUDSVU SAVING "             GWF" ON UNIT 144 AT TIME STEP      9, STRESS PERIOD      3
 UBUDSVU SAVING "           WELLS" ON UNIT  50 AT TIME STEP      9, STRESS PERIOD      3
 UBUDSVU SAVING "           WELLS" ON UNIT 144 AT TIME STEP      9, STRESS PERIOD      3

 HEAD WILL BE SAVED ON UNIT       30 AT END OF TIME STEP        9, STRESS PERIOD        3

 DRAWDOWN WILL BE SAVED ON UNIT   31 AT END OF TIME STEP   9, STRESS PERIOD    3

 CLN HEAD WILL BE SAVED ON UNIT   77 AT END OF TIME STEP   9, STRESS PERIOD    3
1
  VOLUMETRIC BUDGET FOR ENTIRE MODEL AT END OF TIME STEP       9 IN STRESS PERIOD       3
  ---------------------------------------------------------------------------------------

     CUMULATIVE VOLUMES      L**3       RATES FOR THIS TIME STEP      L**3/T
     ------------------                 ------------------------

           IN:                                      IN:
           ---                                      ---
             STORAGE =         420.1846               STORAGE =           5.0000
         CLN STORAGE =           0.0000           CLN STORAGE =           0.0000
       CONSTANT HEAD =           0.0000         CONSTANT HEAD =           0.0000
      CLN CONST HEAD =           0.0000        CLN CONST HEAD =           0.0000
               WELLS =           0.0000                 WELLS =           0.0000

            TOTAL IN =         420.1846              TOTAL IN =           5.0000

          OUT:                                     OUT:
          ----                                     ----
             STORAGE =           0.0000               STORAGE =           0.0000
         CLN STORAGE =           0.0000           CLN STORAGE =           0.0000
       CONSTANT HEAD =           0.0000         CONSTANT HEAD =           0.0000
      CLN CONST HEAD =           0.0000        CLN CONST HEAD =           0.0000
               WELLS =         420.1846                 WELLS =           5.0000

           TOTAL OUT =         420.1846             TOTAL OUT =           5.0000

            IN - OUT =       4.2700E-06              IN - OUT =       7.0792E-09

 PERCENT DISCREPANCY =           0.00     PERCENT DISCREPANCY =           0.00






          TIME SUMMARY AT END OF TIME STEP         9 IN STRESS PERIOD         3
                    SECONDS     MINUTES      HOURS       DAYS        YEARS
                    -----------------------------------------------------------
   TIME STEP LENGTH 4.29341E+05  7155.7      119.26      4.9692     1.36050E-02
 STRESS PERIOD TIME 2.07679E+06  34613.      576.89      24.037     6.58095E-02
         TOTAL TIME 7.26079E+06 1.21013E+05  2016.9      84.037     0.23008    
1
 ------------------------------------------------------------------------------------------------------------
 
 SOLVING FOR TRANSPORT 

 ------------------------------------------------------------------------------------------------------------------------
     1 CALLS TO SPARSE MATRIX SOLVER PACKAGE IN TRANSPORT TIME STEP       9 STRESS PERIOD       3 SPECIES  1

 TOTAL OF       1OUTER ITERATIONS
  MAXIMUM CHANGE FOR EACH ITERATION:
   MAX. CHANGE        NODE  MAX. CHANGE        NODE  MAX. CHANGE        NODE  MAX. CHANGE        NODE  MAX. CHANGE        NODE
 ------------------------------------------------------------------------------------------------------------------------------------
  -0.34067E-10,        191

  MAXIMUM CHANGE FOR CLN NODE AT EACH ITERATION:
   MAX. CHANGE    CLN-CELL  MAX. CHANGE    CLN-CELL  MAX. CHANGE    CLN-CELL  MAX. CHANGE    CLN-CELL  MAX. CHANGE    CLN-CELL
 ------------------------------------------------------------------------------------------------------------------------------------
   0.11474E-08,          3
     TRANSPORT SOLUTION COMPLETE FOR COMPONENT SPECIES NUMBER    1
     ------------------------------------------------------------
 UBUDSVU SAVING "    MASS STORAGE" ON UNIT 145 AT TIME STEP      9, STRESS PERIOD      3
 UBUDSVU SAVING "CLN MASS STORAGE" ON UNIT 145 AT TIME STEP      9, STRESS PERIOD      3
 UBUDSVU SAVING "CNST H MASS FLUX" ON UNIT 145 AT TIME STEP      9, STRESS PERIOD      3
 UBUDSVU SAVING "  WELL MASS FLUX" ON UNIT 145 AT TIME STEP      9, STRESS PERIOD      3

 TRANSPORT SOLUTION COMPLETE FOR ALL SPECIES, SORTING OUTPUT FOR CONCENTRATIONS AND MASS BALANCE
 ----------------------------------------------------------------------------------------------------
     TRANSPORT OUTPUT FOR COMPONENT SPECIES NUMBER    1
     ------------------------------------------------------------

 CONC WILL BE SAVED ON UNIT  132 AT END OF TIME STEP        9, STRESS PERIOD        3

 CLN CONC WILL BE SAVED ON UNIT  188 AT END OF TIME STEP   9, STRESS PERIOD    3
1
  VOLUMETRIC BUDGET FOR ENTIRE MODEL AT END OF TIME STEP       9 IN STRESS PERIOD       3
  ---------------------------------------------------------------------------------------

     CUMULATIVE VOLUMES      L**3       RATES FOR THIS TIME STEP      L**3/T
     ------------------                 ------------------------

           IN:                                      IN:
           ---                                      ---
        MASS STORAGE =          42.0185          MASS STORAGE =           0.5000
    CNST H MASS FLUX =           0.0000      CNST H MASS FLUX =           0.0000
      WELL MASS FLUX =           0.0000        WELL MASS FLUX =           0.0000

            TOTAL IN =          42.0185              TOTAL IN =           0.5000

          OUT:                                     OUT:
          ----                                     ----
        MASS STORAGE =           0.2827          MASS STORAGE =       3.5502E-10
    CNST H MASS FLUX =           0.0000      CNST H MASS FLUX =           0.0000
      WELL MASS FLUX =          41.7357        WELL MASS FLUX =           0.5000

           TOTAL OUT =          42.0185             TOTAL OUT =           0.5000

            IN - OUT =      -3.5122E-11              IN - OUT =      -3.5502E-10

 PERCENT DISCREPANCY =          -0.00     PERCENT DISCREPANCY =          -0.00






          TIME SUMMARY AT END OF TIME STEP         9 IN STRESS PERIOD         3
                    SECONDS     MINUTES      HOURS       DAYS        YEARS
                    -----------------------------------------------------------
   TIME STEP LENGTH 4.29341E+05  7155.7      119.26      4.9692     1.36050E-02
 STRESS PERIOD TIME 2.07679E+06  34613.      576.89      24.037     6.58095E-02
         TOTAL TIME 7.26079E+06 1.21013E+05  2016.9      84.037     0.23008    
1
 -------------------------------------------------------------------------------------
 
 SOLVING FOR HEAD 

 Outer-Iteration  Inner-Iteration  Backtracking  Number of        Incoming       Outgoing  Maximum HeadChange      Maximum Head Change
     Number           Count           Flag       Backtracks       Residual       Residual           Value              Location
        1                             0             0          0.469907E-01     0.469907E-01
        1                7                                                                       -0.383409                   590           GWF-node number
        1                7                                                                       -0.303129                     1           CLN-node number
        2                             0             0          0.273123E-13     0.273123E-13
        2                1                                                                       -0.148375E-06               190           GWF-node number
        2                1                                                                       -0.382073E-06                 2           CLN-node number
     2 CALLS TO SPARSE MATRIX SOLVER PACKAGE  IN FLOW TIME STEP      10 STRESS PERIOD       3

 TOTAL OF       2OUTER ITERATIONS
  MAXIMUM CHANGE FOR EACH ITERATION:
   MAX. CHANGE        NODE  MAX. CHANGE        NODE  MAX. CHANGE        NODE  MAX. CHANGE        NODE  MAX. CHANGE        NODE
 ------------------------------------------------------------------------------------------------------------------------------------
  -0.38341    ,        590 -0.14838E-06,        190

  MAXIMUM CHANGE FOR CLN NODE AT EACH ITERATION:
   MAX. CHANGE    CLN-CELL  MAX. CHANGE    CLN-CELL  MAX. CHANGE    CLN-CELL  MAX. CHANGE    CLN-CELL  MAX. CHANGE    CLN-CELL
 ------------------------------------------------------------------------------------------------------------------------------------
  -0.30313    ,          1 -0.38207E-06,          2

 HEAD/DRAWDOWN PRINTOUT FLAG = 1     TOTAL BUDGET PRINTOUT FLAG = 1
 CELL-BY-CELL FLOW TERM FLAG = 1
 CONCENTRATION PRINTOUT FLAG = 1

 OUTPUT FLAGS FOR ALL LAYERS ARE THE SAME:
   HEAD    DRAWDOWN  HEAD  DRAWDOWN    CONC    CONC
 PRINTOUT  PRINTOUT  SAVE    SAVE    PRINTOUT  SAVE
 ---------------------------------------------------
     0         0       1       1       0       1
 UBUDSVU SAVING "         STORAGE" ON UNIT  50 AT TIME STEP     10, STRESS PERIOD      3
 UBUDSV SAVING "     CLN STORAGE" ON UNIT 144 AT TIME STEP     10, STRESS PERIOD       3
 UBUDSVU SAVING "   CONSTANT HEAD" ON UNIT  50 AT TIME STEP     10, STRESS PERIOD      3
 UBUDSVU SAVING "   FLOW JA FACE " ON UNIT  50 AT TIME STEP     10, STRESS PERIOD      3
 UBUDSVU SAVING "             CLN" ON UNIT  50 AT TIME STEP     10, STRESS PERIOD      3
 UBUDSVU SAVING "  CLN CONST HEAD" ON UNIT 144 AT TIME STEP     10, STRESS PERIOD      3
 UBUDSVU SAVING "   FLOW CLN FACE" ON UNIT 144 AT TIME STEP     10, STRESS PERIOD      3
 UBUDSVU SAVING "             GWF" ON UNIT 144 AT TIME STEP     10, STRESS PERIOD      3
 UBUDSVU SAVING "           WELLS" ON UNIT  50 AT TIME STEP     10, STRESS PERIOD      3
 UBUDSVU SAVING "           WELLS" ON UNIT 144 AT TIME STEP     10, STRESS PERIOD      3

 HEAD WILL BE SAVED ON UNIT       30 AT END OF TIME STEP       10, STRESS PERIOD        3

 DRAWDOWN WILL BE SAVED ON UNIT   31 AT END OF TIME STEP  10, STRESS PERIOD    3

 CLN HEAD WILL BE SAVED ON UNIT   77 AT END OF TIME STEP  10, STRESS PERIOD    3
1
  VOLUMETRIC BUDGET FOR ENTIRE MODEL AT END OF TIME STEP      10 IN STRESS PERIOD       3
  ---------------------------------------------------------------------------------------

     CUMULATIVE VOLUMES      L**3       RATES FOR THIS TIME STEP      L**3/T
     ------------------                 ------------------------

           IN:                                      IN:
           ---                                      ---
             STORAGE =         450.0000               STORAGE =           5.0000
         CLN STORAGE =           0.0000           CLN STORAGE =           0.0000
       CONSTANT HEAD =           0.0000         CONSTANT HEAD =           0.0000
      CLN CONST HEAD =           0.0000        CLN CONST HEAD =           0.0000
               WELLS =           0.0000                 WELLS =           0.0000

            TOTAL IN =         450.0000              TOTAL IN =           5.0000

          OUT:                                     OUT:
          ----                                     ----
             STORAGE =           0.0000               STORAGE =           0.0000
         CLN STORAGE =           0.0000           CLN STORAGE =           0.0000
       CONSTANT HEAD =           0.0000         CONSTANT HEAD =           0.0000
      CLN CONST HEAD =           0.0000        CLN CONST HEAD =           0.0000
               WELLS =         450.0000                 WELLS =           5.0000

           TOTAL OUT =         450.0000             TOTAL OUT =           5.0000

            IN - OUT =       4.4966E-06              IN - OUT =       3.7997E-08

 PERCENT DISCREPANCY =           0.00     PERCENT DISCREPANCY =           0.00






          TIME SUMMARY AT END OF TIME STEP        10 IN STRESS PERIOD         3
                    SECONDS     MINUTES      HOURS       DAYS        YEARS
                    -----------------------------------------------------------
   TIME STEP LENGTH 5.15209E+05  8586.8      143.11      5.9631     1.63260E-02
 STRESS PERIOD TIME 2.59200E+06  43200.      720.00      30.000     8.21355E-02
         TOTAL TIME 7.77600E+06 1.29600E+05  2160.0      90.000     0.24641    
1
 ------------------------------------------------------------------------------------------------------------
 
 SOLVING FOR TRANSPORT 

 ------------------------------------------------------------------------------------------------------------------------
     1 CALLS TO SPARSE MATRIX SOLVER PACKAGE IN TRANSPORT TIME STEP      10 STRESS PERIOD       3 SPECIES  1

 TOTAL OF       1OUTER ITERATIONS
  MAXIMUM CHANGE FOR EACH ITERATION:
   MAX. CHANGE        NODE  MAX. CHANGE        NODE  MAX. CHANGE        NODE  MAX. CHANGE        NODE  MAX. CHANGE        NODE
 ------------------------------------------------------------------------------------------------------------------------------------
  -0.94466E-10,        191

  MAXIMUM CHANGE FOR CLN NODE AT EACH ITERATION:
   MAX. CHANGE    CLN-CELL  MAX. CHANGE    CLN-CELL  MAX. CHANGE    CLN-CELL  MAX. CHANGE    CLN-CELL  MAX. CHANGE    CLN-CELL
 ------------------------------------------------------------------------------------------------------------------------------------
   0.10731E-08,          2
     TRANSPORT SOLUTION COMPLETE FOR COMPONENT SPECIES NUMBER    1
     ------------------------------------------------------------
 UBUDSVU SAVING "    MASS STORAGE" ON UNIT 145 AT TIME STEP     10, STRESS PERIOD      3
 UBUDSVU SAVING "CLN MASS STORAGE" ON UNIT 145 AT TIME STEP     10, STRESS PERIOD      3
 UBUDSVU SAVING "CNST H MASS FLUX" ON UNIT 145 AT TIME STEP     10, STRESS PERIOD      3
 UBUDSVU SAVING "  WELL MASS FLUX" ON UNIT 145 AT TIME STEP     10, STRESS PERIOD      3

 TRANSPORT SOLUTION COMPLETE FOR ALL SPECIES, SORTING OUTPUT FOR CONCENTRATIONS AND MASS BALANCE
 ----------------------------------------------------------------------------------------------------
     TRANSPORT OUTPUT FOR COMPONENT SPECIES NUMBER    1
     ------------------------------------------------------------

 CONC WILL BE SAVED ON UNIT  132 AT END OF TIME STEP       10, STRESS PERIOD        3

 CLN CONC WILL BE SAVED ON UNIT  188 AT END OF TIME STEP  10, STRESS PERIOD    3
1
  VOLUMETRIC BUDGET FOR ENTIRE MODEL AT END OF TIME STEP      10 IN STRESS PERIOD       3
  ---------------------------------------------------------------------------------------

     CUMULATIVE VOLUMES      L**3       RATES FOR THIS TIME STEP      L**3/T
     ------------------                 ------------------------

           IN:                                      IN:
           ---                                      ---
        MASS STORAGE =          45.0000          MASS STORAGE =           0.5000
    CNST H MASS FLUX =           0.0000      CNST H MASS FLUX =           0.0000
      WELL MASS FLUX =           0.0000        WELL MASS FLUX =           0.0000

            TOTAL IN =          45.0000              TOTAL IN =           0.5000

          OUT:                                     OUT:
          ----                                     ----
        MASS STORAGE =           0.2827          MASS STORAGE =       3.9480E-10
    CNST H MASS FLUX =           0.0000      CNST H MASS FLUX =           0.0000
      WELL MASS FLUX =          44.7173        WELL MASS FLUX =           0.5000

           TOTAL OUT =          45.0000             TOTAL OUT =           0.5000

            IN - OUT =      -2.3560E-10              IN - OUT =      -3.9480E-10

 PERCENT DISCREPANCY =          -0.00     PERCENT DISCREPANCY =          -0.00






          TIME SUMMARY AT END OF TIME STEP        10 IN STRESS PERIOD         3
                    SECONDS     MINUTES      HOURS       DAYS        YEARS
                    -----------------------------------------------------------
   TIME STEP LENGTH 5.15209E+05  8586.8      143.11      5.9631     1.63260E-02
 STRESS PERIOD TIME 2.59200E+06  43200.      720.00      30.000     8.21355E-02
         TOTAL TIME 7.77600E+06 1.29600E+05  2160.0      90.000     0.24641    
1
1
                            STRESS PERIOD NO.    4, LENGTH =   30.00000    
                            -----------------------------------------------

                              NUMBER OF TIME STEPS =        10

                               MULTIPLIER FOR DELT =     1.200

                            INITIAL TIME STEP SIZE =   1.155682    

 WEL -- WELL PACKAGE, VERSION 7, 5/2/2005 INPUT READ FROM UNIT   12

 WELL NO.  CLN-NODE       STRESS FACTOR         C01             
 ---------------------------------------------------------------
        1            3      -5.000           0.000           0.000    

      1 WELL 
 -------------------------------------------------------------------------------------
 
 SOLVING FOR HEAD 

 Outer-Iteration  Inner-Iteration  Backtracking  Number of        Incoming       Outgoing  Maximum HeadChange      Maximum Head Change
     Number           Count           Flag       Backtracks       Residual       Residual           Value              Location
        1                             0             0          0.466613E-01     0.466613E-01
        1                5                                                                       -0.733541E-01               590           GWF-node number
        1                5                                                                       -0.586626E-01                 3           CLN-node number
        2                             0             0          0.208388E-13     0.208388E-13
        2                1                                                                        0.977452E-07               190           GWF-node number
        2                1                                                                        0.274391E-06                 3           CLN-node number


     2 CALLS TO SPARSE MATRIX SOLVER PACKAGE  IN FLOW TIME STEP       1 STRESS PERIOD       4

 TOTAL OF       2OUTER ITERATIONS
  MAXIMUM CHANGE FOR EACH ITERATION:
   MAX. CHANGE        NODE  MAX. CHANGE        NODE  MAX. CHANGE        NODE  MAX. CHANGE        NODE  MAX. CHANGE        NODE
 ------------------------------------------------------------------------------------------------------------------------------------
  -0.73354E-01,        590  0.97745E-07,        190

  MAXIMUM CHANGE FOR CLN NODE AT EACH ITERATION:
   MAX. CHANGE    CLN-CELL  MAX. CHANGE    CLN-CELL  MAX. CHANGE    CLN-CELL  MAX. CHANGE    CLN-CELL  MAX. CHANGE    CLN-CELL
 ------------------------------------------------------------------------------------------------------------------------------------
  -0.58663E-01,          3  0.27439E-06,          3

 HEAD/DRAWDOWN PRINTOUT FLAG = 1     TOTAL BUDGET PRINTOUT FLAG = 1
 CELL-BY-CELL FLOW TERM FLAG = 1
 CONCENTRATION PRINTOUT FLAG = 1

 OUTPUT FLAGS FOR ALL LAYERS ARE THE SAME:
   HEAD    DRAWDOWN  HEAD  DRAWDOWN    CONC    CONC
 PRINTOUT  PRINTOUT  SAVE    SAVE    PRINTOUT  SAVE
 ---------------------------------------------------
     0         0       1       1       0       1
 UBUDSVU SAVING "         STORAGE" ON UNIT  50 AT TIME STEP      1, STRESS PERIOD      4
 UBUDSV SAVING "     CLN STORAGE" ON UNIT 144 AT TIME STEP      1, STRESS PERIOD       4
 UBUDSVU SAVING "   CONSTANT HEAD" ON UNIT  50 AT TIME STEP      1, STRESS PERIOD      4
 UBUDSVU SAVING "   FLOW JA FACE " ON UNIT  50 AT TIME STEP      1, STRESS PERIOD      4
 UBUDSVU SAVING "             CLN" ON UNIT  50 AT TIME STEP      1, STRESS PERIOD      4
 UBUDSVU SAVING "  CLN CONST HEAD" ON UNIT 144 AT TIME STEP      1, STRESS PERIOD      4
 UBUDSVU SAVING "   FLOW CLN FACE" ON UNIT 144 AT TIME STEP      1, STRESS PERIOD      4
 UBUDSVU SAVING "             GWF" ON UNIT 144 AT TIME STEP      1, STRESS PERIOD      4
 UBUDSVU SAVING "           WELLS" ON UNIT  50 AT TIME STEP      1, STRESS PERIOD      4
 UBUDSVU SAVING "           WELLS" ON UNIT 144 AT TIME STEP      1, STRESS PERIOD      4

 HEAD WILL BE SAVED ON UNIT       30 AT END OF TIME STEP        1, STRESS PERIOD        4

 DRAWDOWN WILL BE SAVED ON UNIT   31 AT END OF TIME STEP   1, STRESS PERIOD    4

 CLN HEAD WILL BE SAVED ON UNIT   77 AT END OF TIME STEP   1, STRESS PERIOD    4
1
  VOLUMETRIC BUDGET FOR ENTIRE MODEL AT END OF TIME STEP       1 IN STRESS PERIOD       4
  ---------------------------------------------------------------------------------------

     CUMULATIVE VOLUMES      L**3       RATES FOR THIS TIME STEP      L**3/T
     ------------------                 ------------------------

           IN:                                      IN:
           ---                                      ---
             STORAGE =         455.7784               STORAGE =           5.0000
         CLN STORAGE =           0.0000           CLN STORAGE =           0.0000
       CONSTANT HEAD =           0.0000         CONSTANT HEAD =           0.0000
      CLN CONST HEAD =           0.0000        CLN CONST HEAD =           0.0000
               WELLS =           0.0000                 WELLS =           0.0000

            TOTAL IN =         455.7784              TOTAL IN =           5.0000

          OUT:                                     OUT:
          ----                                     ----
             STORAGE =           0.0000               STORAGE =           0.0000
         CLN STORAGE =           0.0000           CLN STORAGE =           0.0000
       CONSTANT HEAD =           0.0000         CONSTANT HEAD =           0.0000
      CLN CONST HEAD =           0.0000        CLN CONST HEAD =           0.0000
               WELLS =         455.7784                 WELLS =           5.0000

           TOTAL OUT =         455.7784             TOTAL OUT =           5.0000

            IN - OUT =       4.5674E-06              IN - OUT =       6.1319E-08

 PERCENT DISCREPANCY =           0.00     PERCENT DISCREPANCY =           0.00






          TIME SUMMARY AT END OF TIME STEP         1 IN STRESS PERIOD         4
                    SECONDS     MINUTES      HOURS       DAYS        YEARS
                    -----------------------------------------------------------
   TIME STEP LENGTH  99851.      1664.2      27.736      1.1557     3.16409E-03
 STRESS PERIOD TIME  99851.      1664.2      27.736      1.1557     3.16409E-03
         TOTAL TIME 7.87585E+06 1.31264E+05  2187.7      91.156     0.24957    
1
 ------------------------------------------------------------------------------------------------------------
 
 SOLVING FOR TRANSPORT 

 ------------------------------------------------------------------------------------------------------------------------
     1 CALLS TO SPARSE MATRIX SOLVER PACKAGE IN TRANSPORT TIME STEP       1 STRESS PERIOD       4 SPECIES  1

 TOTAL OF       1OUTER ITERATIONS
  MAXIMUM CHANGE FOR EACH ITERATION:
   MAX. CHANGE        NODE  MAX. CHANGE        NODE  MAX. CHANGE        NODE  MAX. CHANGE        NODE  MAX. CHANGE        NODE
 ------------------------------------------------------------------------------------------------------------------------------------
   0.11759E-10,        191

  MAXIMUM CHANGE FOR CLN NODE AT EACH ITERATION:
   MAX. CHANGE    CLN-CELL  MAX. CHANGE    CLN-CELL  MAX. CHANGE    CLN-CELL  MAX. CHANGE    CLN-CELL  MAX. CHANGE    CLN-CELL
 ------------------------------------------------------------------------------------------------------------------------------------
  -0.28323E-08,          2
     TRANSPORT SOLUTION COMPLETE FOR COMPONENT SPECIES NUMBER    1
     ------------------------------------------------------------
 UBUDSVU SAVING "    MASS STORAGE" ON UNIT 145 AT TIME STEP      1, STRESS PERIOD      4
 UBUDSVU SAVING "CLN MASS STORAGE" ON UNIT 145 AT TIME STEP      1, STRESS PERIOD      4
 UBUDSVU SAVING "CNST H MASS FLUX" ON UNIT 145 AT TIME STEP      1, STRESS PERIOD      4
 UBUDSVU SAVING "  WELL MASS FLUX" ON UNIT 145 AT TIME STEP      1, STRESS PERIOD      4

 TRANSPORT SOLUTION COMPLETE FOR ALL SPECIES, SORTING OUTPUT FOR CONCENTRATIONS AND MASS BALANCE
 ----------------------------------------------------------------------------------------------------
     TRANSPORT OUTPUT FOR COMPONENT SPECIES NUMBER    1
     ------------------------------------------------------------

 CONC WILL BE SAVED ON UNIT  132 AT END OF TIME STEP        1, STRESS PERIOD        4

 CLN CONC WILL BE SAVED ON UNIT  188 AT END OF TIME STEP   1, STRESS PERIOD    4
1
  VOLUMETRIC BUDGET FOR ENTIRE MODEL AT END OF TIME STEP       1 IN STRESS PERIOD       4
  ---------------------------------------------------------------------------------------

     CUMULATIVE VOLUMES      L**3       RATES FOR THIS TIME STEP      L**3/T
     ------------------                 ------------------------

           IN:                                      IN:
           ---                                      ---
        MASS STORAGE =          45.5778          MASS STORAGE =           0.5000
    CNST H MASS FLUX =           0.0000      CNST H MASS FLUX =           0.0000
      WELL MASS FLUX =           0.0000        WELL MASS FLUX =           0.0000

            TOTAL IN =          45.5778              TOTAL IN =           0.5000

          OUT:                                     OUT:
          ----                                     ----
        MASS STORAGE =           0.2827          MASS STORAGE =           0.0000
    CNST H MASS FLUX =           0.0000      CNST H MASS FLUX =           0.0000
      WELL MASS FLUX =          45.2951        WELL MASS FLUX =           0.5000

           TOTAL OUT =          45.5778             TOTAL OUT =           0.5000

            IN - OUT =      -2.3497E-10              IN - OUT =           0.0000

 PERCENT DISCREPANCY =          -0.00     PERCENT DISCREPANCY =           0.00






          TIME SUMMARY AT END OF TIME STEP         1 IN STRESS PERIOD         4
                    SECONDS     MINUTES      HOURS       DAYS        YEARS
                    -----------------------------------------------------------
   TIME STEP LENGTH  99851.      1664.2      27.736      1.1557     3.16409E-03
 STRESS PERIOD TIME  99851.      1664.2      27.736      1.1557     3.16409E-03
         TOTAL TIME 7.87585E+06 1.31264E+05  2187.7      91.156     0.24957    
1
 -------------------------------------------------------------------------------------
 
 SOLVING FOR HEAD 

 Outer-Iteration  Inner-Iteration  Backtracking  Number of        Incoming       Outgoing  Maximum HeadChange      Maximum Head Change
     Number           Count           Flag       Backtracks       Residual       Residual           Value              Location
        1                             0             0          0.465986E-01     0.465986E-01
        1                5                                                                       -0.867163E-01               590           GWF-node number
        1                5                                                                       -0.702761E-01                 1           CLN-node number
        2                             0             0          0.904461E-14     0.904461E-14
        2                1                                                                       -0.207268E-07               190           GWF-node number
        2                1                                                                       -0.505300E-07                 3           CLN-node number
     2 CALLS TO SPARSE MATRIX SOLVER PACKAGE  IN FLOW TIME STEP       2 STRESS PERIOD       4

 TOTAL OF       2OUTER ITERATIONS
  MAXIMUM CHANGE FOR EACH ITERATION:
   MAX. CHANGE        NODE  MAX. CHANGE        NODE  MAX. CHANGE        NODE  MAX. CHANGE        NODE  MAX. CHANGE        NODE
 ------------------------------------------------------------------------------------------------------------------------------------
  -0.86716E-01,        590 -0.20727E-07,        190

  MAXIMUM CHANGE FOR CLN NODE AT EACH ITERATION:
   MAX. CHANGE    CLN-CELL  MAX. CHANGE    CLN-CELL  MAX. CHANGE    CLN-CELL  MAX. CHANGE    CLN-CELL  MAX. CHANGE    CLN-CELL
 ------------------------------------------------------------------------------------------------------------------------------------
  -0.70276E-01,          1 -0.50530E-07,          3

 HEAD/DRAWDOWN PRINTOUT FLAG = 1     TOTAL BUDGET PRINTOUT FLAG = 1
 CELL-BY-CELL FLOW TERM FLAG = 1
 CONCENTRATION PRINTOUT FLAG = 1

 OUTPUT FLAGS FOR ALL LAYERS ARE THE SAME:
   HEAD    DRAWDOWN  HEAD  DRAWDOWN    CONC    CONC
 PRINTOUT  PRINTOUT  SAVE    SAVE    PRINTOUT  SAVE
 ---------------------------------------------------
     0         0       1       1       0       1
 UBUDSVU SAVING "         STORAGE" ON UNIT  50 AT TIME STEP      2, STRESS PERIOD      4
 UBUDSV SAVING "     CLN STORAGE" ON UNIT 144 AT TIME STEP      2, STRESS PERIOD       4
 UBUDSVU SAVING "   CONSTANT HEAD" ON UNIT  50 AT TIME STEP      2, STRESS PERIOD      4
 UBUDSVU SAVING "   FLOW JA FACE " ON UNIT  50 AT TIME STEP      2, STRESS PERIOD      4
 UBUDSVU SAVING "             CLN" ON UNIT  50 AT TIME STEP      2, STRESS PERIOD      4
 UBUDSVU SAVING "  CLN CONST HEAD" ON UNIT 144 AT TIME STEP      2, STRESS PERIOD      4
 UBUDSVU SAVING "   FLOW CLN FACE" ON UNIT 144 AT TIME STEP      2, STRESS PERIOD      4
 UBUDSVU SAVING "             GWF" ON UNIT 144 AT TIME STEP      2, STRESS PERIOD      4
 UBUDSVU SAVING "           WELLS" ON UNIT  50 AT TIME STEP      2, STRESS PERIOD      4
 UBUDSVU SAVING "           WELLS" ON UNIT 144 AT TIME STEP      2, STRESS PERIOD      4

 HEAD WILL BE SAVED ON UNIT       30 AT END OF TIME STEP        2, STRESS PERIOD        4

 DRAWDOWN WILL BE SAVED ON UNIT   31 AT END OF TIME STEP   2, STRESS PERIOD    4

 CLN HEAD WILL BE SAVED ON UNIT   77 AT END OF TIME STEP   2, STRESS PERIOD    4
1
  VOLUMETRIC BUDGET FOR ENTIRE MODEL AT END OF TIME STEP       2 IN STRESS PERIOD       4
  ---------------------------------------------------------------------------------------

     CUMULATIVE VOLUMES      L**3       RATES FOR THIS TIME STEP      L**3/T
     ------------------                 ------------------------

           IN:                                      IN:
           ---                                      ---
             STORAGE =         462.7125               STORAGE =           5.0000
         CLN STORAGE =           0.0000           CLN STORAGE =           0.0000
       CONSTANT HEAD =           0.0000         CONSTANT HEAD =           0.0000
      CLN CONST HEAD =           0.0000        CLN CONST HEAD =           0.0000
               WELLS =           0.0000                 WELLS =           0.0000

            TOTAL IN =         462.7125              TOTAL IN =           5.0000

          OUT:                                     OUT:
          ----                                     ----
             STORAGE =           0.0000               STORAGE =           0.0000
         CLN STORAGE =           0.0000           CLN STORAGE =           0.0000
       CONSTANT HEAD =           0.0000         CONSTANT HEAD =           0.0000
      CLN CONST HEAD =           0.0000        CLN CONST HEAD =           0.0000
               WELLS =         462.7125                 WELLS =           5.0000

           TOTAL OUT =         462.7125             TOTAL OUT =           5.0000

            IN - OUT =       4.5889E-06              IN - OUT =       1.5491E-08

 PERCENT DISCREPANCY =           0.00     PERCENT DISCREPANCY =           0.00






          TIME SUMMARY AT END OF TIME STEP         2 IN STRESS PERIOD         4
                    SECONDS     MINUTES      HOURS       DAYS        YEARS
                    -----------------------------------------------------------
   TIME STEP LENGTH 1.19821E+05  1997.0      33.284      1.3868     3.79690E-03
 STRESS PERIOD TIME 2.19672E+05  3661.2      61.020      2.5425     6.96099E-03
         TOTAL TIME 7.99567E+06 1.33261E+05  2221.0      92.543     0.25337    
1
 ------------------------------------------------------------------------------------------------------------
 
 SOLVING FOR TRANSPORT 

 ------------------------------------------------------------------------------------------------------------------------
     1 CALLS TO SPARSE MATRIX SOLVER PACKAGE IN TRANSPORT TIME STEP       2 STRESS PERIOD       4 SPECIES  1

 TOTAL OF       1OUTER ITERATIONS
  MAXIMUM CHANGE FOR EACH ITERATION:
   MAX. CHANGE        NODE  MAX. CHANGE        NODE  MAX. CHANGE        NODE  MAX. CHANGE        NODE  MAX. CHANGE        NODE
 ------------------------------------------------------------------------------------------------------------------------------------
  -0.20159E-11,        191

  MAXIMUM CHANGE FOR CLN NODE AT EACH ITERATION:
   MAX. CHANGE    CLN-CELL  MAX. CHANGE    CLN-CELL  MAX. CHANGE    CLN-CELL  MAX. CHANGE    CLN-CELL  MAX. CHANGE    CLN-CELL
 ------------------------------------------------------------------------------------------------------------------------------------
  -0.27448E-09,          1
     TRANSPORT SOLUTION COMPLETE FOR COMPONENT SPECIES NUMBER    1
     ------------------------------------------------------------
 UBUDSVU SAVING "    MASS STORAGE" ON UNIT 145 AT TIME STEP      2, STRESS PERIOD      4
 UBUDSVU SAVING "CLN MASS STORAGE" ON UNIT 145 AT TIME STEP      2, STRESS PERIOD      4
 UBUDSVU SAVING "CNST H MASS FLUX" ON UNIT 145 AT TIME STEP      2, STRESS PERIOD      4
 UBUDSVU SAVING "  WELL MASS FLUX" ON UNIT 145 AT TIME STEP      2, STRESS PERIOD      4

 TRANSPORT SOLUTION COMPLETE FOR ALL SPECIES, SORTING OUTPUT FOR CONCENTRATIONS AND MASS BALANCE
 ----------------------------------------------------------------------------------------------------
     TRANSPORT OUTPUT FOR COMPONENT SPECIES NUMBER    1
     ------------------------------------------------------------

 CONC WILL BE SAVED ON UNIT  132 AT END OF TIME STEP        2, STRESS PERIOD        4

 CLN CONC WILL BE SAVED ON UNIT  188 AT END OF TIME STEP   2, STRESS PERIOD    4
1
  VOLUMETRIC BUDGET FOR ENTIRE MODEL AT END OF TIME STEP       2 IN STRESS PERIOD       4
  ---------------------------------------------------------------------------------------

     CUMULATIVE VOLUMES      L**3       RATES FOR THIS TIME STEP      L**3/T
     ------------------                 ------------------------

           IN:                                      IN:
           ---                                      ---
        MASS STORAGE =          46.2713          MASS STORAGE =           0.5000
    CNST H MASS FLUX =           0.0000      CNST H MASS FLUX =           0.0000
      WELL MASS FLUX =           0.0000        WELL MASS FLUX =           0.0000

            TOTAL IN =          46.2713              TOTAL IN =           0.5000

          OUT:                                     OUT:
          ----                                     ----
        MASS STORAGE =           0.2827          MASS STORAGE =       1.1079E-11
    CNST H MASS FLUX =           0.0000      CNST H MASS FLUX =           0.0000
      WELL MASS FLUX =          45.9885        WELL MASS FLUX =           0.5000

           TOTAL OUT =          46.2713             TOTAL OUT =           0.5000

            IN - OUT =      -2.3505E-10              IN - OUT =      -1.1079E-11

 PERCENT DISCREPANCY =          -0.00     PERCENT DISCREPANCY =          -0.00






          TIME SUMMARY AT END OF TIME STEP         2 IN STRESS PERIOD         4
                    SECONDS     MINUTES      HOURS       DAYS        YEARS
                    -----------------------------------------------------------
   TIME STEP LENGTH 1.19821E+05  1997.0      33.284      1.3868     3.79690E-03
 STRESS PERIOD TIME 2.19672E+05  3661.2      61.020      2.5425     6.96099E-03
         TOTAL TIME 7.99567E+06 1.33261E+05  2221.0      92.543     0.25337    
1
 -------------------------------------------------------------------------------------
 
 SOLVING FOR HEAD 

 Outer-Iteration  Inner-Iteration  Backtracking  Number of        Incoming       Outgoing  Maximum HeadChange      Maximum Head Change
     Number           Count           Flag       Backtracks       Residual       Residual           Value              Location
        1                             0             0          0.465242E-01     0.465242E-01
        1                5                                                                       -0.102279                   590           GWF-node number
        1                5                                                                       -0.841666E-01                 1           CLN-node number
        2                             0             0          0.758126E-15     0.758126E-15
        2                1                                                                       -0.228184E-07               406           GWF-node number
        2                1                                                                       -0.307202E-07                 3           CLN-node number
     2 CALLS TO SPARSE MATRIX SOLVER PACKAGE  IN FLOW TIME STEP       3 STRESS PERIOD       4

 TOTAL OF       2OUTER ITERATIONS
  MAXIMUM CHANGE FOR EACH ITERATION:
   MAX. CHANGE        NODE  MAX. CHANGE        NODE  MAX. CHANGE        NODE  MAX. CHANGE        NODE  MAX. CHANGE        NODE
 ------------------------------------------------------------------------------------------------------------------------------------
  -0.10228    ,        590 -0.22818E-07,        406

  MAXIMUM CHANGE FOR CLN NODE AT EACH ITERATION:
   MAX. CHANGE    CLN-CELL  MAX. CHANGE    CLN-CELL  MAX. CHANGE    CLN-CELL  MAX. CHANGE    CLN-CELL  MAX. CHANGE    CLN-CELL
 ------------------------------------------------------------------------------------------------------------------------------------
  -0.84167E-01,          1 -0.30720E-07,          3

 HEAD/DRAWDOWN PRINTOUT FLAG = 1     TOTAL BUDGET PRINTOUT FLAG = 1
 CELL-BY-CELL FLOW TERM FLAG = 1
 CONCENTRATION PRINTOUT FLAG = 1

 OUTPUT FLAGS FOR ALL LAYERS ARE THE SAME:
   HEAD    DRAWDOWN  HEAD  DRAWDOWN    CONC    CONC
 PRINTOUT  PRINTOUT  SAVE    SAVE    PRINTOUT  SAVE
 ---------------------------------------------------
     0         0       1       1       0       1
 UBUDSVU SAVING "         STORAGE" ON UNIT  50 AT TIME STEP      3, STRESS PERIOD      4
 UBUDSV SAVING "     CLN STORAGE" ON UNIT 144 AT TIME STEP      3, STRESS PERIOD       4
 UBUDSVU SAVING "   CONSTANT HEAD" ON UNIT  50 AT TIME STEP      3, STRESS PERIOD      4
 UBUDSVU SAVING "   FLOW JA FACE " ON UNIT  50 AT TIME STEP      3, STRESS PERIOD      4
 UBUDSVU SAVING "             CLN" ON UNIT  50 AT TIME STEP      3, STRESS PERIOD      4
 UBUDSVU SAVING "  CLN CONST HEAD" ON UNIT 144 AT TIME STEP      3, STRESS PERIOD      4
 UBUDSVU SAVING "   FLOW CLN FACE" ON UNIT 144 AT TIME STEP      3, STRESS PERIOD      4
 UBUDSVU SAVING "             GWF" ON UNIT 144 AT TIME STEP      3, STRESS PERIOD      4
 UBUDSVU SAVING "           WELLS" ON UNIT  50 AT TIME STEP      3, STRESS PERIOD      4
 UBUDSVU SAVING "           WELLS" ON UNIT 144 AT TIME STEP      3, STRESS PERIOD      4

 HEAD WILL BE SAVED ON UNIT       30 AT END OF TIME STEP        3, STRESS PERIOD        4

 DRAWDOWN WILL BE SAVED ON UNIT   31 AT END OF TIME STEP   3, STRESS PERIOD    4

 CLN HEAD WILL BE SAVED ON UNIT   77 AT END OF TIME STEP   3, STRESS PERIOD    4
1
  VOLUMETRIC BUDGET FOR ENTIRE MODEL AT END OF TIME STEP       3 IN STRESS PERIOD       4
  ---------------------------------------------------------------------------------------

     CUMULATIVE VOLUMES      L**3       RATES FOR THIS TIME STEP      L**3/T
     ------------------                 ------------------------

           IN:                                      IN:
           ---                                      ---
             STORAGE =         471.0334               STORAGE =           5.0000
         CLN STORAGE =           0.0000           CLN STORAGE =           0.0000
       CONSTANT HEAD =           0.0000         CONSTANT HEAD =           0.0000
      CLN CONST HEAD =           0.0000        CLN CONST HEAD =           0.0000
               WELLS =           0.0000                 WELLS =           0.0000

            TOTAL IN =         471.0334              TOTAL IN =           5.0000

          OUT:                                     OUT:
          ----                                     ----
             STORAGE =           0.0000               STORAGE =           0.0000
         CLN STORAGE =           0.0000           CLN STORAGE =           0.0000
       CONSTANT HEAD =           0.0000         CONSTANT HEAD =           0.0000
      CLN CONST HEAD =           0.0000        CLN CONST HEAD =           0.0000
               WELLS =         471.0334                 WELLS =           5.0000

           TOTAL OUT =         471.0334             TOTAL OUT =           5.0000

            IN - OUT =       4.5711E-06              IN - OUT =      -1.0697E-08

 PERCENT DISCREPANCY =           0.00     PERCENT DISCREPANCY =          -0.00






          TIME SUMMARY AT END OF TIME STEP         3 IN STRESS PERIOD         4
                    SECONDS     MINUTES      HOURS       DAYS        YEARS
                    -----------------------------------------------------------
   TIME STEP LENGTH 1.43785E+05  2396.4      39.940      1.6642     4.55628E-03
 STRESS PERIOD TIME 3.63458E+05  6057.6      100.96      4.2067     1.15173E-02
         TOTAL TIME 8.13946E+06 1.35658E+05  2261.0      94.207     0.25792    
1
 ------------------------------------------------------------------------------------------------------------
 
 SOLVING FOR TRANSPORT 

 ------------------------------------------------------------------------------------------------------------------------
     1 CALLS TO SPARSE MATRIX SOLVER PACKAGE IN TRANSPORT TIME STEP       3 STRESS PERIOD       4 SPECIES  1

 TOTAL OF       1OUTER ITERATIONS
  MAXIMUM CHANGE FOR EACH ITERATION:
   MAX. CHANGE        NODE  MAX. CHANGE        NODE  MAX. CHANGE        NODE  MAX. CHANGE        NODE  MAX. CHANGE        NODE
 ------------------------------------------------------------------------------------------------------------------------------------
  -0.13597E-11,        190

  MAXIMUM CHANGE FOR CLN NODE AT EACH ITERATION:
   MAX. CHANGE    CLN-CELL  MAX. CHANGE    CLN-CELL  MAX. CHANGE    CLN-CELL  MAX. CHANGE    CLN-CELL  MAX. CHANGE    CLN-CELL
 ------------------------------------------------------------------------------------------------------------------------------------
  -0.57598E-09,          3
     TRANSPORT SOLUTION COMPLETE FOR COMPONENT SPECIES NUMBER    1
     ------------------------------------------------------------
 UBUDSVU SAVING "    MASS STORAGE" ON UNIT 145 AT TIME STEP      3, STRESS PERIOD      4
 UBUDSVU SAVING "CLN MASS STORAGE" ON UNIT 145 AT TIME STEP      3, STRESS PERIOD      4
 UBUDSVU SAVING "CNST H MASS FLUX" ON UNIT 145 AT TIME STEP      3, STRESS PERIOD      4
 UBUDSVU SAVING "  WELL MASS FLUX" ON UNIT 145 AT TIME STEP      3, STRESS PERIOD      4

 TRANSPORT SOLUTION COMPLETE FOR ALL SPECIES, SORTING OUTPUT FOR CONCENTRATIONS AND MASS BALANCE
 ----------------------------------------------------------------------------------------------------
     TRANSPORT OUTPUT FOR COMPONENT SPECIES NUMBER    1
     ------------------------------------------------------------

 CONC WILL BE SAVED ON UNIT  132 AT END OF TIME STEP        3, STRESS PERIOD        4

 CLN CONC WILL BE SAVED ON UNIT  188 AT END OF TIME STEP   3, STRESS PERIOD    4
1
  VOLUMETRIC BUDGET FOR ENTIRE MODEL AT END OF TIME STEP       3 IN STRESS PERIOD       4
  ---------------------------------------------------------------------------------------

     CUMULATIVE VOLUMES      L**3       RATES FOR THIS TIME STEP      L**3/T
     ------------------                 ------------------------

           IN:                                      IN:
           ---                                      ---
        MASS STORAGE =          47.1033          MASS STORAGE =           0.5000
    CNST H MASS FLUX =           0.0000      CNST H MASS FLUX =           0.0000
      WELL MASS FLUX =           0.0000        WELL MASS FLUX =           0.0000

            TOTAL IN =          47.1033              TOTAL IN =           0.5000

          OUT:                                     OUT:
          ----                                     ----
        MASS STORAGE =           0.2827          MASS STORAGE =           0.0000
    CNST H MASS FLUX =           0.0000      CNST H MASS FLUX =           0.0000
      WELL MASS FLUX =          46.8206        WELL MASS FLUX =           0.5000

           TOTAL OUT =          47.1033             TOTAL OUT =           0.5000

            IN - OUT =      -2.3511E-10              IN - OUT =           0.0000

 PERCENT DISCREPANCY =          -0.00     PERCENT DISCREPANCY =           0.00






          TIME SUMMARY AT END OF TIME STEP         3 IN STRESS PERIOD         4
                    SECONDS     MINUTES      HOURS       DAYS        YEARS
                    -----------------------------------------------------------
   TIME STEP LENGTH 1.43785E+05  2396.4      39.940      1.6642     4.55628E-03
 STRESS PERIOD TIME 3.63458E+05  6057.6      100.96      4.2067     1.15173E-02
         TOTAL TIME 8.13946E+06 1.35658E+05  2261.0      94.207     0.25792    
1
 -------------------------------------------------------------------------------------
 
 SOLVING FOR HEAD 

 Outer-Iteration  Inner-Iteration  Backtracking  Number of        Incoming       Outgoing  Maximum HeadChange      Maximum Head Change
     Number           Count           Flag       Backtracks       Residual       Residual           Value              Location
        1                             0             0          0.464361E-01     0.464361E-01
        1                5                                                                       -0.120339                   590           GWF-node number
        1                5                                                                       -0.100774                     1           CLN-node number
        2                             0             0          0.132908E-13     0.132908E-13
        2                1                                                                       -0.630206E-07               406           GWF-node number
        2                1                                                                       -0.168574E-07                 1           CLN-node number
     2 CALLS TO SPARSE MATRIX SOLVER PACKAGE  IN FLOW TIME STEP       4 STRESS PERIOD       4

 TOTAL OF       2OUTER ITERATIONS
  MAXIMUM CHANGE FOR EACH ITERATION:
   MAX. CHANGE        NODE  MAX. CHANGE        NODE  MAX. CHANGE        NODE  MAX. CHANGE        NODE  MAX. CHANGE        NODE
 ------------------------------------------------------------------------------------------------------------------------------------
  -0.12034    ,        590 -0.63021E-07,        406

  MAXIMUM CHANGE FOR CLN NODE AT EACH ITERATION:
   MAX. CHANGE    CLN-CELL  MAX. CHANGE    CLN-CELL  MAX. CHANGE    CLN-CELL  MAX. CHANGE    CLN-CELL  MAX. CHANGE    CLN-CELL
 ------------------------------------------------------------------------------------------------------------------------------------
  -0.10077    ,          1 -0.16857E-07,          1

 HEAD/DRAWDOWN PRINTOUT FLAG = 1     TOTAL BUDGET PRINTOUT FLAG = 1
 CELL-BY-CELL FLOW TERM FLAG = 1
 CONCENTRATION PRINTOUT FLAG = 1

 OUTPUT FLAGS FOR ALL LAYERS ARE THE SAME:
   HEAD    DRAWDOWN  HEAD  DRAWDOWN    CONC    CONC
 PRINTOUT  PRINTOUT  SAVE    SAVE    PRINTOUT  SAVE
 ---------------------------------------------------
     0         0       1       1       0       1
 UBUDSVU SAVING "         STORAGE" ON UNIT  50 AT TIME STEP      4, STRESS PERIOD      4
 UBUDSV SAVING "     CLN STORAGE" ON UNIT 144 AT TIME STEP      4, STRESS PERIOD       4
 UBUDSVU SAVING "   CONSTANT HEAD" ON UNIT  50 AT TIME STEP      4, STRESS PERIOD      4
 UBUDSVU SAVING "   FLOW JA FACE " ON UNIT  50 AT TIME STEP      4, STRESS PERIOD      4
 UBUDSVU SAVING "             CLN" ON UNIT  50 AT TIME STEP      4, STRESS PERIOD      4
 UBUDSVU SAVING "  CLN CONST HEAD" ON UNIT 144 AT TIME STEP      4, STRESS PERIOD      4
 UBUDSVU SAVING "   FLOW CLN FACE" ON UNIT 144 AT TIME STEP      4, STRESS PERIOD      4
 UBUDSVU SAVING "             GWF" ON UNIT 144 AT TIME STEP      4, STRESS PERIOD      4
 UBUDSVU SAVING "           WELLS" ON UNIT  50 AT TIME STEP      4, STRESS PERIOD      4
 UBUDSVU SAVING "           WELLS" ON UNIT 144 AT TIME STEP      4, STRESS PERIOD      4

 HEAD WILL BE SAVED ON UNIT       30 AT END OF TIME STEP        4, STRESS PERIOD        4

 DRAWDOWN WILL BE SAVED ON UNIT   31 AT END OF TIME STEP   4, STRESS PERIOD    4

 CLN HEAD WILL BE SAVED ON UNIT   77 AT END OF TIME STEP   4, STRESS PERIOD    4
1
  VOLUMETRIC BUDGET FOR ENTIRE MODEL AT END OF TIME STEP       4 IN STRESS PERIOD       4
  ---------------------------------------------------------------------------------------

     CUMULATIVE VOLUMES      L**3       RATES FOR THIS TIME STEP      L**3/T
     ------------------                 ------------------------

           IN:                                      IN:
           ---                                      ---
             STORAGE =         481.0185               STORAGE =           5.0000
         CLN STORAGE =           0.0000           CLN STORAGE =           0.0000
       CONSTANT HEAD =           0.0000         CONSTANT HEAD =           0.0000
      CLN CONST HEAD =           0.0000        CLN CONST HEAD =           0.0000
               WELLS =           0.0000                 WELLS =           0.0000

            TOTAL IN =         481.0185              TOTAL IN =           5.0000

          OUT:                                     OUT:
          ----                                     ----
             STORAGE =           0.0000               STORAGE =           0.0000
         CLN STORAGE =           0.0000           CLN STORAGE =           0.0000
       CONSTANT HEAD =           0.0000         CONSTANT HEAD =           0.0000
      CLN CONST HEAD =           0.0000        CLN CONST HEAD =           0.0000
               WELLS =         481.0185                 WELLS =           5.0000

           TOTAL OUT =         481.0185             TOTAL OUT =           5.0000

            IN - OUT =       4.5572E-06              IN - OUT =      -6.9843E-09

 PERCENT DISCREPANCY =           0.00     PERCENT DISCREPANCY =          -0.00






          TIME SUMMARY AT END OF TIME STEP         4 IN STRESS PERIOD         4
                    SECONDS     MINUTES      HOURS       DAYS        YEARS
                    -----------------------------------------------------------
   TIME STEP LENGTH 1.72542E+05  2875.7      47.928      1.9970     5.46754E-03
 STRESS PERIOD TIME 5.36000E+05  8933.3      148.89      6.2037     1.69848E-02
         TOTAL TIME 8.31200E+06 1.38533E+05  2308.9      96.204     0.26339    
1
 ------------------------------------------------------------------------------------------------------------
 
 SOLVING FOR TRANSPORT 

 ------------------------------------------------------------------------------------------------------------------------
     1 CALLS TO SPARSE MATRIX SOLVER PACKAGE IN TRANSPORT TIME STEP       4 STRESS PERIOD       4 SPECIES  1

 TOTAL OF       1OUTER ITERATIONS
  MAXIMUM CHANGE FOR EACH ITERATION:
   MAX. CHANGE        NODE  MAX. CHANGE        NODE  MAX. CHANGE        NODE  MAX. CHANGE        NODE  MAX. CHANGE        NODE
 ------------------------------------------------------------------------------------------------------------------------------------
  -0.16286E-11,        190

  MAXIMUM CHANGE FOR CLN NODE AT EACH ITERATION:
   MAX. CHANGE    CLN-CELL  MAX. CHANGE    CLN-CELL  MAX. CHANGE    CLN-CELL  MAX. CHANGE    CLN-CELL  MAX. CHANGE    CLN-CELL
 ------------------------------------------------------------------------------------------------------------------------------------
   0.78329E-09,          2
     TRANSPORT SOLUTION COMPLETE FOR COMPONENT SPECIES NUMBER    1
     ------------------------------------------------------------
 UBUDSVU SAVING "    MASS STORAGE" ON UNIT 145 AT TIME STEP      4, STRESS PERIOD      4
 UBUDSVU SAVING "CLN MASS STORAGE" ON UNIT 145 AT TIME STEP      4, STRESS PERIOD      4
 UBUDSVU SAVING "CNST H MASS FLUX" ON UNIT 145 AT TIME STEP      4, STRESS PERIOD      4
 UBUDSVU SAVING "  WELL MASS FLUX" ON UNIT 145 AT TIME STEP      4, STRESS PERIOD      4

 TRANSPORT SOLUTION COMPLETE FOR ALL SPECIES, SORTING OUTPUT FOR CONCENTRATIONS AND MASS BALANCE
 ----------------------------------------------------------------------------------------------------
     TRANSPORT OUTPUT FOR COMPONENT SPECIES NUMBER    1
     ------------------------------------------------------------

 CONC WILL BE SAVED ON UNIT  132 AT END OF TIME STEP        4, STRESS PERIOD        4

 CLN CONC WILL BE SAVED ON UNIT  188 AT END OF TIME STEP   4, STRESS PERIOD    4
1
  VOLUMETRIC BUDGET FOR ENTIRE MODEL AT END OF TIME STEP       4 IN STRESS PERIOD       4
  ---------------------------------------------------------------------------------------

     CUMULATIVE VOLUMES      L**3       RATES FOR THIS TIME STEP      L**3/T
     ------------------                 ------------------------

           IN:                                      IN:
           ---                                      ---
        MASS STORAGE =          48.1019          MASS STORAGE =           0.5000
    CNST H MASS FLUX =           0.0000      CNST H MASS FLUX =           0.0000
      WELL MASS FLUX =           0.0000        WELL MASS FLUX =           0.0000

            TOTAL IN =          48.1019              TOTAL IN =           0.5000

          OUT:                                     OUT:
          ----                                     ----
        MASS STORAGE =           0.2827          MASS STORAGE =       4.5332E-10
    CNST H MASS FLUX =           0.0000      CNST H MASS FLUX =           0.0000
      WELL MASS FLUX =          47.8191        WELL MASS FLUX =           0.5000

           TOTAL OUT =          48.1019             TOTAL OUT =           0.5000

            IN - OUT =      -2.3509E-10              IN - OUT =      -4.5332E-10

 PERCENT DISCREPANCY =          -0.00     PERCENT DISCREPANCY =          -0.00






          TIME SUMMARY AT END OF TIME STEP         4 IN STRESS PERIOD         4
                    SECONDS     MINUTES      HOURS       DAYS        YEARS
                    -----------------------------------------------------------
   TIME STEP LENGTH 1.72542E+05  2875.7      47.928      1.9970     5.46754E-03
 STRESS PERIOD TIME 5.36000E+05  8933.3      148.89      6.2037     1.69848E-02
         TOTAL TIME 8.31200E+06 1.38533E+05  2308.9      96.204     0.26339    
1
 -------------------------------------------------------------------------------------
 
 SOLVING FOR HEAD 

 Outer-Iteration  Inner-Iteration  Backtracking  Number of        Incoming       Outgoing  Maximum HeadChange      Maximum Head Change
     Number           Count           Flag       Backtracks       Residual       Residual           Value              Location
        1                             0             0          0.463319E-01     0.463319E-01
        1                6                                                                       -0.141221                   590           GWF-node number
        1                6                                                                       -0.120619                     3           CLN-node number
        2                             0             0          0.127456E-13     0.127456E-13
        2                1                                                                       -0.875944E-07               190           GWF-node number
        2                1                                                                       -0.223436E-06                 3           CLN-node number
     2 CALLS TO SPARSE MATRIX SOLVER PACKAGE  IN FLOW TIME STEP       5 STRESS PERIOD       4

 TOTAL OF       2OUTER ITERATIONS
  MAXIMUM CHANGE FOR EACH ITERATION:
   MAX. CHANGE        NODE  MAX. CHANGE        NODE  MAX. CHANGE        NODE  MAX. CHANGE        NODE  MAX. CHANGE        NODE
 ------------------------------------------------------------------------------------------------------------------------------------
  -0.14122    ,        590 -0.87594E-07,        190

  MAXIMUM CHANGE FOR CLN NODE AT EACH ITERATION:
   MAX. CHANGE    CLN-CELL  MAX. CHANGE    CLN-CELL  MAX. CHANGE    CLN-CELL  MAX. CHANGE    CLN-CELL  MAX. CHANGE    CLN-CELL
 ------------------------------------------------------------------------------------------------------------------------------------
  -0.12062    ,          3 -0.22344E-06,          3

 HEAD/DRAWDOWN PRINTOUT FLAG = 1     TOTAL BUDGET PRINTOUT FLAG = 1
 CELL-BY-CELL FLOW TERM FLAG = 1
 CONCENTRATION PRINTOUT FLAG = 1

 OUTPUT FLAGS FOR ALL LAYERS ARE THE SAME:
   HEAD    DRAWDOWN  HEAD  DRAWDOWN    CONC    CONC
 PRINTOUT  PRINTOUT  SAVE    SAVE    PRINTOUT  SAVE
 ---------------------------------------------------
     0         0       1       1       0       1
 UBUDSVU SAVING "         STORAGE" ON UNIT  50 AT TIME STEP      5, STRESS PERIOD      4
 UBUDSV SAVING "     CLN STORAGE" ON UNIT 144 AT TIME STEP      5, STRESS PERIOD       4
 UBUDSVU SAVING "   CONSTANT HEAD" ON UNIT  50 AT TIME STEP      5, STRESS PERIOD      4
 UBUDSVU SAVING "   FLOW JA FACE " ON UNIT  50 AT TIME STEP      5, STRESS PERIOD      4
 UBUDSVU SAVING "             CLN" ON UNIT  50 AT TIME STEP      5, STRESS PERIOD      4
 UBUDSVU SAVING "  CLN CONST HEAD" ON UNIT 144 AT TIME STEP      5, STRESS PERIOD      4
 UBUDSVU SAVING "   FLOW CLN FACE" ON UNIT 144 AT TIME STEP      5, STRESS PERIOD      4
 UBUDSVU SAVING "             GWF" ON UNIT 144 AT TIME STEP      5, STRESS PERIOD      4
 UBUDSVU SAVING "           WELLS" ON UNIT  50 AT TIME STEP      5, STRESS PERIOD      4
 UBUDSVU SAVING "           WELLS" ON UNIT 144 AT TIME STEP      5, STRESS PERIOD      4

 HEAD WILL BE SAVED ON UNIT       30 AT END OF TIME STEP        5, STRESS PERIOD        4

 DRAWDOWN WILL BE SAVED ON UNIT   31 AT END OF TIME STEP   5, STRESS PERIOD    4

 CLN HEAD WILL BE SAVED ON UNIT   77 AT END OF TIME STEP   5, STRESS PERIOD    4
1
  VOLUMETRIC BUDGET FOR ENTIRE MODEL AT END OF TIME STEP       5 IN STRESS PERIOD       4
  ---------------------------------------------------------------------------------------

     CUMULATIVE VOLUMES      L**3       RATES FOR THIS TIME STEP      L**3/T
     ------------------                 ------------------------

           IN:                                      IN:
           ---                                      ---
             STORAGE =         493.0006               STORAGE =           5.0000
         CLN STORAGE =           0.0000           CLN STORAGE =           0.0000
       CONSTANT HEAD =           0.0000         CONSTANT HEAD =           0.0000
      CLN CONST HEAD =           0.0000        CLN CONST HEAD =           0.0000
               WELLS =           0.0000                 WELLS =           0.0000

            TOTAL IN =         493.0006              TOTAL IN =           5.0000

          OUT:                                     OUT:
          ----                                     ----
             STORAGE =           0.0000               STORAGE =           0.0000
         CLN STORAGE =           0.0000           CLN STORAGE =           0.0000
       CONSTANT HEAD =           0.0000         CONSTANT HEAD =           0.0000
      CLN CONST HEAD =           0.0000        CLN CONST HEAD =           0.0000
               WELLS =         493.0006                 WELLS =           5.0000

           TOTAL OUT =         493.0006             TOTAL OUT =           5.0000

            IN - OUT =       4.7232E-06              IN - OUT =       6.9289E-08

 PERCENT DISCREPANCY =           0.00     PERCENT DISCREPANCY =           0.00






          TIME SUMMARY AT END OF TIME STEP         5 IN STRESS PERIOD         4
                    SECONDS     MINUTES      HOURS       DAYS        YEARS
                    -----------------------------------------------------------
   TIME STEP LENGTH 2.07051E+05  3450.8      57.514      2.3964     6.56105E-03
 STRESS PERIOD TIME 7.43051E+05  12384.      206.40      8.6001     2.35459E-02
         TOTAL TIME 8.51905E+06 1.41984E+05  2366.4      98.600     0.26995    
1
 ------------------------------------------------------------------------------------------------------------
 
 SOLVING FOR TRANSPORT 

 ------------------------------------------------------------------------------------------------------------------------
     1 CALLS TO SPARSE MATRIX SOLVER PACKAGE IN TRANSPORT TIME STEP       5 STRESS PERIOD       4 SPECIES  1

 TOTAL OF       1OUTER ITERATIONS
  MAXIMUM CHANGE FOR EACH ITERATION:
   MAX. CHANGE        NODE  MAX. CHANGE        NODE  MAX. CHANGE        NODE  MAX. CHANGE        NODE  MAX. CHANGE        NODE
 ------------------------------------------------------------------------------------------------------------------------------------
  -0.20004E-10,        191

  MAXIMUM CHANGE FOR CLN NODE AT EACH ITERATION:
   MAX. CHANGE    CLN-CELL  MAX. CHANGE    CLN-CELL  MAX. CHANGE    CLN-CELL  MAX. CHANGE    CLN-CELL  MAX. CHANGE    CLN-CELL
 ------------------------------------------------------------------------------------------------------------------------------------
   0.22378E-08,          3
     TRANSPORT SOLUTION COMPLETE FOR COMPONENT SPECIES NUMBER    1
     ------------------------------------------------------------
 UBUDSVU SAVING "    MASS STORAGE" ON UNIT 145 AT TIME STEP      5, STRESS PERIOD      4
 UBUDSVU SAVING "CLN MASS STORAGE" ON UNIT 145 AT TIME STEP      5, STRESS PERIOD      4
 UBUDSVU SAVING "CNST H MASS FLUX" ON UNIT 145 AT TIME STEP      5, STRESS PERIOD      4
 UBUDSVU SAVING "  WELL MASS FLUX" ON UNIT 145 AT TIME STEP      5, STRESS PERIOD      4

 TRANSPORT SOLUTION COMPLETE FOR ALL SPECIES, SORTING OUTPUT FOR CONCENTRATIONS AND MASS BALANCE
 ----------------------------------------------------------------------------------------------------
     TRANSPORT OUTPUT FOR COMPONENT SPECIES NUMBER    1
     ------------------------------------------------------------

 CONC WILL BE SAVED ON UNIT  132 AT END OF TIME STEP        5, STRESS PERIOD        4

 CLN CONC WILL BE SAVED ON UNIT  188 AT END OF TIME STEP   5, STRESS PERIOD    4
1
  VOLUMETRIC BUDGET FOR ENTIRE MODEL AT END OF TIME STEP       5 IN STRESS PERIOD       4
  ---------------------------------------------------------------------------------------

     CUMULATIVE VOLUMES      L**3       RATES FOR THIS TIME STEP      L**3/T
     ------------------                 ------------------------

           IN:                                      IN:
           ---                                      ---
        MASS STORAGE =          49.3001          MASS STORAGE =           0.5000
    CNST H MASS FLUX =           0.0000      CNST H MASS FLUX =           0.0000
      WELL MASS FLUX =           0.0000        WELL MASS FLUX =           0.0000

            TOTAL IN =          49.3001              TOTAL IN =           0.5000

          OUT:                                     OUT:
          ----                                     ----
        MASS STORAGE =           0.2827          MASS STORAGE =       1.3074E-09
    CNST H MASS FLUX =           0.0000      CNST H MASS FLUX =           0.0000
      WELL MASS FLUX =          49.0173        WELL MASS FLUX =           0.5000

           TOTAL OUT =          49.3001             TOTAL OUT =           0.5000

            IN - OUT =      -2.4051E-10              IN - OUT =      -1.3074E-09

 PERCENT DISCREPANCY =          -0.00     PERCENT DISCREPANCY =          -0.00






          TIME SUMMARY AT END OF TIME STEP         5 IN STRESS PERIOD         4
                    SECONDS     MINUTES      HOURS       DAYS        YEARS
                    -----------------------------------------------------------
   TIME STEP LENGTH 2.07051E+05  3450.8      57.514      2.3964     6.56105E-03
 STRESS PERIOD TIME 7.43051E+05  12384.      206.40      8.6001     2.35459E-02
         TOTAL TIME 8.51905E+06 1.41984E+05  2366.4      98.600     0.26995    
1
 -------------------------------------------------------------------------------------
 
 SOLVING FOR HEAD 

 Outer-Iteration  Inner-Iteration  Backtracking  Number of        Incoming       Outgoing  Maximum HeadChange      Maximum Head Change
     Number           Count           Flag       Backtracks       Residual       Residual           Value              Location
        1                             0             0          0.462089E-01     0.462089E-01
        1                6                                                                       -0.165294                   590           GWF-node number
        1                6                                                                       -0.144321                     1           CLN-node number
        2                             0             0          0.120445E-13     0.120445E-13
        2                1                                                                        0.132244E-06               190           GWF-node number
        2                1                                                                        0.339998E-06                 2           CLN-node number
     2 CALLS TO SPARSE MATRIX SOLVER PACKAGE  IN FLOW TIME STEP       6 STRESS PERIOD       4

 TOTAL OF       2OUTER ITERATIONS
  MAXIMUM CHANGE FOR EACH ITERATION:
   MAX. CHANGE        NODE  MAX. CHANGE        NODE  MAX. CHANGE        NODE  MAX. CHANGE        NODE  MAX. CHANGE        NODE
 ------------------------------------------------------------------------------------------------------------------------------------
  -0.16529    ,        590  0.13224E-06,        190

  MAXIMUM CHANGE FOR CLN NODE AT EACH ITERATION:
   MAX. CHANGE    CLN-CELL  MAX. CHANGE    CLN-CELL  MAX. CHANGE    CLN-CELL  MAX. CHANGE    CLN-CELL  MAX. CHANGE    CLN-CELL
 ------------------------------------------------------------------------------------------------------------------------------------
  -0.14432    ,          1  0.34000E-06,          2

 HEAD/DRAWDOWN PRINTOUT FLAG = 1     TOTAL BUDGET PRINTOUT FLAG = 1
 CELL-BY-CELL FLOW TERM FLAG = 1
 CONCENTRATION PRINTOUT FLAG = 1

 OUTPUT FLAGS FOR ALL LAYERS ARE THE SAME:
   HEAD    DRAWDOWN  HEAD  DRAWDOWN    CONC    CONC
 PRINTOUT  PRINTOUT  SAVE    SAVE    PRINTOUT  SAVE
 ---------------------------------------------------
     0         0       1       1       0       1
 UBUDSVU SAVING "         STORAGE" ON UNIT  50 AT TIME STEP      6, STRESS PERIOD      4
 UBUDSV SAVING "     CLN STORAGE" ON UNIT 144 AT TIME STEP      6, STRESS PERIOD       4
 UBUDSVU SAVING "   CONSTANT HEAD" ON UNIT  50 AT TIME STEP      6, STRESS PERIOD      4
 UBUDSVU SAVING "   FLOW JA FACE " ON UNIT  50 AT TIME STEP      6, STRESS PERIOD      4
 UBUDSVU SAVING "             CLN" ON UNIT  50 AT TIME STEP      6, STRESS PERIOD      4
 UBUDSVU SAVING "  CLN CONST HEAD" ON UNIT 144 AT TIME STEP      6, STRESS PERIOD      4
 UBUDSVU SAVING "   FLOW CLN FACE" ON UNIT 144 AT TIME STEP      6, STRESS PERIOD      4
 UBUDSVU SAVING "             GWF" ON UNIT 144 AT TIME STEP      6, STRESS PERIOD      4
 UBUDSVU SAVING "           WELLS" ON UNIT  50 AT TIME STEP      6, STRESS PERIOD      4
 UBUDSVU SAVING "           WELLS" ON UNIT 144 AT TIME STEP      6, STRESS PERIOD      4

 HEAD WILL BE SAVED ON UNIT       30 AT END OF TIME STEP        6, STRESS PERIOD        4

 DRAWDOWN WILL BE SAVED ON UNIT   31 AT END OF TIME STEP   6, STRESS PERIOD    4

 CLN HEAD WILL BE SAVED ON UNIT   77 AT END OF TIME STEP   6, STRESS PERIOD    4
1
  VOLUMETRIC BUDGET FOR ENTIRE MODEL AT END OF TIME STEP       6 IN STRESS PERIOD       4
  ---------------------------------------------------------------------------------------

     CUMULATIVE VOLUMES      L**3       RATES FOR THIS TIME STEP      L**3/T
     ------------------                 ------------------------

           IN:                                      IN:
           ---                                      ---
             STORAGE =         507.3792               STORAGE =           5.0000
         CLN STORAGE =           0.0000           CLN STORAGE =           0.0000
       CONSTANT HEAD =           0.0000         CONSTANT HEAD =           0.0000
      CLN CONST HEAD =           0.0000        CLN CONST HEAD =           0.0000
               WELLS =           0.0000                 WELLS =           0.0000

            TOTAL IN =         507.3792              TOTAL IN =           5.0000

          OUT:                                     OUT:
          ----                                     ----
             STORAGE =           0.0000               STORAGE =           0.0000
         CLN STORAGE =           0.0000           CLN STORAGE =           0.0000
       CONSTANT HEAD =           0.0000         CONSTANT HEAD =           0.0000
      CLN CONST HEAD =           0.0000        CLN CONST HEAD =           0.0000
               WELLS =         507.3792                 WELLS =           5.0000

           TOTAL OUT =         507.3792             TOTAL OUT =           5.0000

            IN - OUT =       5.1618E-06              IN - OUT =       1.5252E-07

 PERCENT DISCREPANCY =           0.00     PERCENT DISCREPANCY =           0.00






          TIME SUMMARY AT END OF TIME STEP         6 IN STRESS PERIOD         4
                    SECONDS     MINUTES      HOURS       DAYS        YEARS
                    -----------------------------------------------------------
   TIME STEP LENGTH 2.48461E+05  4141.0      69.017      2.8757     7.87326E-03
 STRESS PERIOD TIME 9.91512E+05  16525.      275.42      11.476     3.14191E-02
         TOTAL TIME 8.76751E+06 1.46125E+05  2435.4      101.48     0.27783    
1
 ------------------------------------------------------------------------------------------------------------
 
 SOLVING FOR TRANSPORT 

 ------------------------------------------------------------------------------------------------------------------------
     1 CALLS TO SPARSE MATRIX SOLVER PACKAGE IN TRANSPORT TIME STEP       6 STRESS PERIOD       4 SPECIES  1

 TOTAL OF       1OUTER ITERATIONS
  MAXIMUM CHANGE FOR EACH ITERATION:
   MAX. CHANGE        NODE  MAX. CHANGE        NODE  MAX. CHANGE        NODE  MAX. CHANGE        NODE  MAX. CHANGE        NODE
 ------------------------------------------------------------------------------------------------------------------------------------
   0.40450E-10,        191

  MAXIMUM CHANGE FOR CLN NODE AT EACH ITERATION:
   MAX. CHANGE    CLN-CELL  MAX. CHANGE    CLN-CELL  MAX. CHANGE    CLN-CELL  MAX. CHANGE    CLN-CELL  MAX. CHANGE    CLN-CELL
 ------------------------------------------------------------------------------------------------------------------------------------
  -0.18341E-08,          2
     TRANSPORT SOLUTION COMPLETE FOR COMPONENT SPECIES NUMBER    1
     ------------------------------------------------------------
 UBUDSVU SAVING "    MASS STORAGE" ON UNIT 145 AT TIME STEP      6, STRESS PERIOD      4
 UBUDSVU SAVING "CLN MASS STORAGE" ON UNIT 145 AT TIME STEP      6, STRESS PERIOD      4
 UBUDSVU SAVING "CNST H MASS FLUX" ON UNIT 145 AT TIME STEP      6, STRESS PERIOD      4
 UBUDSVU SAVING "  WELL MASS FLUX" ON UNIT 145 AT TIME STEP      6, STRESS PERIOD      4

 TRANSPORT SOLUTION COMPLETE FOR ALL SPECIES, SORTING OUTPUT FOR CONCENTRATIONS AND MASS BALANCE
 ----------------------------------------------------------------------------------------------------
     TRANSPORT OUTPUT FOR COMPONENT SPECIES NUMBER    1
     ------------------------------------------------------------

 CONC WILL BE SAVED ON UNIT  132 AT END OF TIME STEP        6, STRESS PERIOD        4

 CLN CONC WILL BE SAVED ON UNIT  188 AT END OF TIME STEP   6, STRESS PERIOD    4
1
  VOLUMETRIC BUDGET FOR ENTIRE MODEL AT END OF TIME STEP       6 IN STRESS PERIOD       4
  ---------------------------------------------------------------------------------------

     CUMULATIVE VOLUMES      L**3       RATES FOR THIS TIME STEP      L**3/T
     ------------------                 ------------------------

           IN:                                      IN:
           ---                                      ---
        MASS STORAGE =          50.7379          MASS STORAGE =           0.5000
    CNST H MASS FLUX =           0.0000      CNST H MASS FLUX =           0.0000
      WELL MASS FLUX =           0.0000        WELL MASS FLUX =           0.0000

            TOTAL IN =          50.7379              TOTAL IN =           0.5000

          OUT:                                     OUT:
          ----                                     ----
        MASS STORAGE =           0.2827          MASS STORAGE =       2.3639E-10
    CNST H MASS FLUX =           0.0000      CNST H MASS FLUX =           0.0000
      WELL MASS FLUX =          50.4552        WELL MASS FLUX =           0.5000

           TOTAL OUT =          50.7379             TOTAL OUT =           0.5000

            IN - OUT =      -2.2752E-10              IN - OUT =      -2.3639E-10

 PERCENT DISCREPANCY =          -0.00     PERCENT DISCREPANCY =          -0.00






          TIME SUMMARY AT END OF TIME STEP         6 IN STRESS PERIOD         4
                    SECONDS     MINUTES      HOURS       DAYS        YEARS
                    -----------------------------------------------------------
   TIME STEP LENGTH 2.48461E+05  4141.0      69.017      2.8757     7.87326E-03
 STRESS PERIOD TIME 9.91512E+05  16525.      275.42      11.476     3.14191E-02
         TOTAL TIME 8.76751E+06 1.46125E+05  2435.4      101.48     0.27783    
1
 -------------------------------------------------------------------------------------
 
 SOLVING FOR HEAD 

 Outer-Iteration  Inner-Iteration  Backtracking  Number of        Incoming       Outgoing  Maximum HeadChange      Maximum Head Change
     Number           Count           Flag       Backtracks       Residual       Residual           Value              Location
        1                             0             0          0.460642E-01     0.460642E-01
        1                6                                                                       -0.192983                   590           GWF-node number
        1                6                                                                       -0.172612                     1           CLN-node number
        2                             0             0          0.675929E-14     0.675929E-14
        2                1                                                                        0.626438E-07               401           GWF-node number
        2                1                                                                        0.119888E-06                 1           CLN-node number
     2 CALLS TO SPARSE MATRIX SOLVER PACKAGE  IN FLOW TIME STEP       7 STRESS PERIOD       4

 TOTAL OF       2OUTER ITERATIONS
  MAXIMUM CHANGE FOR EACH ITERATION:
   MAX. CHANGE        NODE  MAX. CHANGE        NODE  MAX. CHANGE        NODE  MAX. CHANGE        NODE  MAX. CHANGE        NODE
 ------------------------------------------------------------------------------------------------------------------------------------
  -0.19298    ,        590  0.62644E-07,        401

  MAXIMUM CHANGE FOR CLN NODE AT EACH ITERATION:
   MAX. CHANGE    CLN-CELL  MAX. CHANGE    CLN-CELL  MAX. CHANGE    CLN-CELL  MAX. CHANGE    CLN-CELL  MAX. CHANGE    CLN-CELL
 ------------------------------------------------------------------------------------------------------------------------------------
  -0.17261    ,          1  0.11989E-06,          1

 HEAD/DRAWDOWN PRINTOUT FLAG = 1     TOTAL BUDGET PRINTOUT FLAG = 1
 CELL-BY-CELL FLOW TERM FLAG = 1
 CONCENTRATION PRINTOUT FLAG = 1

 OUTPUT FLAGS FOR ALL LAYERS ARE THE SAME:
   HEAD    DRAWDOWN  HEAD  DRAWDOWN    CONC    CONC
 PRINTOUT  PRINTOUT  SAVE    SAVE    PRINTOUT  SAVE
 ---------------------------------------------------
     0         0       1       1       0       1
 UBUDSVU SAVING "         STORAGE" ON UNIT  50 AT TIME STEP      7, STRESS PERIOD      4
 UBUDSV SAVING "     CLN STORAGE" ON UNIT 144 AT TIME STEP      7, STRESS PERIOD       4
 UBUDSVU SAVING "   CONSTANT HEAD" ON UNIT  50 AT TIME STEP      7, STRESS PERIOD      4
 UBUDSVU SAVING "   FLOW JA FACE " ON UNIT  50 AT TIME STEP      7, STRESS PERIOD      4
 UBUDSVU SAVING "             CLN" ON UNIT  50 AT TIME STEP      7, STRESS PERIOD      4
 UBUDSVU SAVING "  CLN CONST HEAD" ON UNIT 144 AT TIME STEP      7, STRESS PERIOD      4
 UBUDSVU SAVING "   FLOW CLN FACE" ON UNIT 144 AT TIME STEP      7, STRESS PERIOD      4
 UBUDSVU SAVING "             GWF" ON UNIT 144 AT TIME STEP      7, STRESS PERIOD      4
 UBUDSVU SAVING "           WELLS" ON UNIT  50 AT TIME STEP      7, STRESS PERIOD      4
 UBUDSVU SAVING "           WELLS" ON UNIT 144 AT TIME STEP      7, STRESS PERIOD      4

 HEAD WILL BE SAVED ON UNIT       30 AT END OF TIME STEP        7, STRESS PERIOD        4

 DRAWDOWN WILL BE SAVED ON UNIT   31 AT END OF TIME STEP   7, STRESS PERIOD    4

 CLN HEAD WILL BE SAVED ON UNIT   77 AT END OF TIME STEP   7, STRESS PERIOD    4
1
  VOLUMETRIC BUDGET FOR ENTIRE MODEL AT END OF TIME STEP       7 IN STRESS PERIOD       4
  ---------------------------------------------------------------------------------------

     CUMULATIVE VOLUMES      L**3       RATES FOR THIS TIME STEP      L**3/T
     ------------------                 ------------------------

           IN:                                      IN:
           ---                                      ---
             STORAGE =         524.6334               STORAGE =           5.0000
         CLN STORAGE =           0.0000           CLN STORAGE =           0.0000
       CONSTANT HEAD =           0.0000         CONSTANT HEAD =           0.0000
      CLN CONST HEAD =           0.0000        CLN CONST HEAD =           0.0000
               WELLS =           0.0000                 WELLS =           0.0000

            TOTAL IN =         524.6334              TOTAL IN =           5.0000

          OUT:                                     OUT:
          ----                                     ----
             STORAGE =           0.0000               STORAGE =           0.0000
         CLN STORAGE =           0.0000           CLN STORAGE =           0.0000
       CONSTANT HEAD =           0.0000         CONSTANT HEAD =           0.0000
      CLN CONST HEAD =           0.0000        CLN CONST HEAD =           0.0000
               WELLS =         524.6334                 WELLS =           5.0000

           TOTAL OUT =         524.6334             TOTAL OUT =           5.0000

            IN - OUT =       5.4482E-06              IN - OUT =       8.3005E-08

 PERCENT DISCREPANCY =           0.00     PERCENT DISCREPANCY =           0.00






          TIME SUMMARY AT END OF TIME STEP         7 IN STRESS PERIOD         4
                    SECONDS     MINUTES      HOURS       DAYS        YEARS
                    -----------------------------------------------------------
   TIME STEP LENGTH 2.98153E+05  4969.2      82.820      3.4509     9.44791E-03
 STRESS PERIOD TIME 1.28967E+06  21494.      358.24      14.927     4.08670E-02
         TOTAL TIME 9.06566E+06 1.51094E+05  2518.2      104.93     0.28727    
1
 ------------------------------------------------------------------------------------------------------------
 
 SOLVING FOR TRANSPORT 

 ------------------------------------------------------------------------------------------------------------------------
     1 CALLS TO SPARSE MATRIX SOLVER PACKAGE IN TRANSPORT TIME STEP       7 STRESS PERIOD       4 SPECIES  1

 TOTAL OF       1OUTER ITERATIONS
  MAXIMUM CHANGE FOR EACH ITERATION:
   MAX. CHANGE        NODE  MAX. CHANGE        NODE  MAX. CHANGE        NODE  MAX. CHANGE        NODE  MAX. CHANGE        NODE
 ------------------------------------------------------------------------------------------------------------------------------------
   0.17644E-10,        191

  MAXIMUM CHANGE FOR CLN NODE AT EACH ITERATION:
   MAX. CHANGE    CLN-CELL  MAX. CHANGE    CLN-CELL  MAX. CHANGE    CLN-CELL  MAX. CHANGE    CLN-CELL  MAX. CHANGE    CLN-CELL
 ------------------------------------------------------------------------------------------------------------------------------------
  -0.46780E-09,          1
     TRANSPORT SOLUTION COMPLETE FOR COMPONENT SPECIES NUMBER    1
     ------------------------------------------------------------
 UBUDSVU SAVING "    MASS STORAGE" ON UNIT 145 AT TIME STEP      7, STRESS PERIOD      4
 UBUDSVU SAVING "CLN MASS STORAGE" ON UNIT 145 AT TIME STEP      7, STRESS PERIOD      4
 UBUDSVU SAVING "CNST H MASS FLUX" ON UNIT 145 AT TIME STEP      7, STRESS PERIOD      4
 UBUDSVU SAVING "  WELL MASS FLUX" ON UNIT 145 AT TIME STEP      7, STRESS PERIOD      4

 TRANSPORT SOLUTION COMPLETE FOR ALL SPECIES, SORTING OUTPUT FOR CONCENTRATIONS AND MASS BALANCE
 ----------------------------------------------------------------------------------------------------
     TRANSPORT OUTPUT FOR COMPONENT SPECIES NUMBER    1
     ------------------------------------------------------------

 CONC WILL BE SAVED ON UNIT  132 AT END OF TIME STEP        7, STRESS PERIOD        4

 CLN CONC WILL BE SAVED ON UNIT  188 AT END OF TIME STEP   7, STRESS PERIOD    4
1
  VOLUMETRIC BUDGET FOR ENTIRE MODEL AT END OF TIME STEP       7 IN STRESS PERIOD       4
  ---------------------------------------------------------------------------------------

     CUMULATIVE VOLUMES      L**3       RATES FOR THIS TIME STEP      L**3/T
     ------------------                 ------------------------

           IN:                                      IN:
           ---                                      ---
        MASS STORAGE =          52.4633          MASS STORAGE =           0.5000
    CNST H MASS FLUX =           0.0000      CNST H MASS FLUX =           0.0000
      WELL MASS FLUX =           0.0000        WELL MASS FLUX =           0.0000

            TOTAL IN =          52.4633              TOTAL IN =           0.5000

          OUT:                                     OUT:
          ----                                     ----
        MASS STORAGE =           0.2827          MASS STORAGE =           0.0000
    CNST H MASS FLUX =           0.0000      CNST H MASS FLUX =           0.0000
      WELL MASS FLUX =          52.1806        WELL MASS FLUX =           0.5000

           TOTAL OUT =          52.4633             TOTAL OUT =           0.5000

            IN - OUT =      -2.1682E-10              IN - OUT =           0.0000

 PERCENT DISCREPANCY =          -0.00     PERCENT DISCREPANCY =           0.00






          TIME SUMMARY AT END OF TIME STEP         7 IN STRESS PERIOD         4
                    SECONDS     MINUTES      HOURS       DAYS        YEARS
                    -----------------------------------------------------------
   TIME STEP LENGTH 2.98153E+05  4969.2      82.820      3.4509     9.44791E-03
 STRESS PERIOD TIME 1.28967E+06  21494.      358.24      14.927     4.08670E-02
         TOTAL TIME 9.06566E+06 1.51094E+05  2518.2      104.93     0.28727    
1
 -------------------------------------------------------------------------------------
 
 SOLVING FOR HEAD 

 Outer-Iteration  Inner-Iteration  Backtracking  Number of        Incoming       Outgoing  Maximum HeadChange      Maximum Head Change
     Number           Count           Flag       Backtracks       Residual       Residual           Value              Location
        1                             0             0          0.458944E-01     0.458944E-01
        1                6                                                                       -0.224800                   590           GWF-node number
        1                6                                                                       -0.206359                     1           CLN-node number
        2                             0             0          0.248254E-13     0.248254E-13
        2                1                                                                        0.189136E-06               401           GWF-node number
        2                1                                                                       -0.166674E-06                 2           CLN-node number
     2 CALLS TO SPARSE MATRIX SOLVER PACKAGE  IN FLOW TIME STEP       8 STRESS PERIOD       4

 TOTAL OF       2OUTER ITERATIONS
  MAXIMUM CHANGE FOR EACH ITERATION:
   MAX. CHANGE        NODE  MAX. CHANGE        NODE  MAX. CHANGE        NODE  MAX. CHANGE        NODE  MAX. CHANGE        NODE
 ------------------------------------------------------------------------------------------------------------------------------------
  -0.22480    ,        590  0.18914E-06,        401

  MAXIMUM CHANGE FOR CLN NODE AT EACH ITERATION:
   MAX. CHANGE    CLN-CELL  MAX. CHANGE    CLN-CELL  MAX. CHANGE    CLN-CELL  MAX. CHANGE    CLN-CELL  MAX. CHANGE    CLN-CELL
 ------------------------------------------------------------------------------------------------------------------------------------
  -0.20636    ,          1 -0.16667E-06,          2

 HEAD/DRAWDOWN PRINTOUT FLAG = 1     TOTAL BUDGET PRINTOUT FLAG = 1
 CELL-BY-CELL FLOW TERM FLAG = 1
 CONCENTRATION PRINTOUT FLAG = 1

 OUTPUT FLAGS FOR ALL LAYERS ARE THE SAME:
   HEAD    DRAWDOWN  HEAD  DRAWDOWN    CONC    CONC
 PRINTOUT  PRINTOUT  SAVE    SAVE    PRINTOUT  SAVE
 ---------------------------------------------------
     0         0       1       1       0       1
 UBUDSVU SAVING "         STORAGE" ON UNIT  50 AT TIME STEP      8, STRESS PERIOD      4
 UBUDSV SAVING "     CLN STORAGE" ON UNIT 144 AT TIME STEP      8, STRESS PERIOD       4
 UBUDSVU SAVING "   CONSTANT HEAD" ON UNIT  50 AT TIME STEP      8, STRESS PERIOD      4
 UBUDSVU SAVING "   FLOW JA FACE " ON UNIT  50 AT TIME STEP      8, STRESS PERIOD      4
 UBUDSVU SAVING "             CLN" ON UNIT  50 AT TIME STEP      8, STRESS PERIOD      4
 UBUDSVU SAVING "  CLN CONST HEAD" ON UNIT 144 AT TIME STEP      8, STRESS PERIOD      4
 UBUDSVU SAVING "   FLOW CLN FACE" ON UNIT 144 AT TIME STEP      8, STRESS PERIOD      4
 UBUDSVU SAVING "             GWF" ON UNIT 144 AT TIME STEP      8, STRESS PERIOD      4
 UBUDSVU SAVING "           WELLS" ON UNIT  50 AT TIME STEP      8, STRESS PERIOD      4
 UBUDSVU SAVING "           WELLS" ON UNIT 144 AT TIME STEP      8, STRESS PERIOD      4

 HEAD WILL BE SAVED ON UNIT       30 AT END OF TIME STEP        8, STRESS PERIOD        4

 DRAWDOWN WILL BE SAVED ON UNIT   31 AT END OF TIME STEP   8, STRESS PERIOD    4

 CLN HEAD WILL BE SAVED ON UNIT   77 AT END OF TIME STEP   8, STRESS PERIOD    4
1
  VOLUMETRIC BUDGET FOR ENTIRE MODEL AT END OF TIME STEP       8 IN STRESS PERIOD       4
  ---------------------------------------------------------------------------------------

     CUMULATIVE VOLUMES      L**3       RATES FOR THIS TIME STEP      L**3/T
     ------------------                 ------------------------

           IN:                                      IN:
           ---                                      ---
             STORAGE =         545.3385               STORAGE =           5.0000
         CLN STORAGE =           0.0000           CLN STORAGE =           0.0000
       CONSTANT HEAD =           0.0000         CONSTANT HEAD =           0.0000
      CLN CONST HEAD =           0.0000        CLN CONST HEAD =           0.0000
               WELLS =           0.0000                 WELLS =           0.0000

            TOTAL IN =         545.3385              TOTAL IN =           5.0000

          OUT:                                     OUT:
          ----                                     ----
             STORAGE =           0.0000               STORAGE =           0.0000
         CLN STORAGE =           0.0000           CLN STORAGE =           0.0000
       CONSTANT HEAD =           0.0000         CONSTANT HEAD =           0.0000
      CLN CONST HEAD =           0.0000        CLN CONST HEAD =           0.0000
               WELLS =         545.3385                 WELLS =           5.0000

           TOTAL OUT =         545.3385             TOTAL OUT =           5.0000

            IN - OUT =       5.4771E-06              IN - OUT =       6.9822E-09

 PERCENT DISCREPANCY =           0.00     PERCENT DISCREPANCY =           0.00






          TIME SUMMARY AT END OF TIME STEP         8 IN STRESS PERIOD         4
                    SECONDS     MINUTES      HOURS       DAYS        YEARS
                    -----------------------------------------------------------
   TIME STEP LENGTH 3.57784E+05  5963.1      99.384      4.1410     1.13375E-02
 STRESS PERIOD TIME 1.64745E+06  27457.      457.62      19.068     5.22045E-02
         TOTAL TIME 9.42345E+06 1.57057E+05  2617.6      109.07     0.29861    
1
 ------------------------------------------------------------------------------------------------------------
 
 SOLVING FOR TRANSPORT 

 ------------------------------------------------------------------------------------------------------------------------
     1 CALLS TO SPARSE MATRIX SOLVER PACKAGE IN TRANSPORT TIME STEP       8 STRESS PERIOD       4 SPECIES  1

 TOTAL OF       1OUTER ITERATIONS
  MAXIMUM CHANGE FOR EACH ITERATION:
   MAX. CHANGE        NODE  MAX. CHANGE        NODE  MAX. CHANGE        NODE  MAX. CHANGE        NODE  MAX. CHANGE        NODE
 ------------------------------------------------------------------------------------------------------------------------------------
  -0.28005E-10,        191

  MAXIMUM CHANGE FOR CLN NODE AT EACH ITERATION:
   MAX. CHANGE    CLN-CELL  MAX. CHANGE    CLN-CELL  MAX. CHANGE    CLN-CELL  MAX. CHANGE    CLN-CELL  MAX. CHANGE    CLN-CELL
 ------------------------------------------------------------------------------------------------------------------------------------
   0.13818E-08,          2
     TRANSPORT SOLUTION COMPLETE FOR COMPONENT SPECIES NUMBER    1
     ------------------------------------------------------------
 UBUDSVU SAVING "    MASS STORAGE" ON UNIT 145 AT TIME STEP      8, STRESS PERIOD      4
 UBUDSVU SAVING "CLN MASS STORAGE" ON UNIT 145 AT TIME STEP      8, STRESS PERIOD      4
 UBUDSVU SAVING "CNST H MASS FLUX" ON UNIT 145 AT TIME STEP      8, STRESS PERIOD      4
 UBUDSVU SAVING "  WELL MASS FLUX" ON UNIT 145 AT TIME STEP      8, STRESS PERIOD      4

 TRANSPORT SOLUTION COMPLETE FOR ALL SPECIES, SORTING OUTPUT FOR CONCENTRATIONS AND MASS BALANCE
 ----------------------------------------------------------------------------------------------------
     TRANSPORT OUTPUT FOR COMPONENT SPECIES NUMBER    1
     ------------------------------------------------------------

 CONC WILL BE SAVED ON UNIT  132 AT END OF TIME STEP        8, STRESS PERIOD        4

 CLN CONC WILL BE SAVED ON UNIT  188 AT END OF TIME STEP   8, STRESS PERIOD    4
1
  VOLUMETRIC BUDGET FOR ENTIRE MODEL AT END OF TIME STEP       8 IN STRESS PERIOD       4
  ---------------------------------------------------------------------------------------

     CUMULATIVE VOLUMES      L**3       RATES FOR THIS TIME STEP      L**3/T
     ------------------                 ------------------------

           IN:                                      IN:
           ---                                      ---
        MASS STORAGE =          54.5339          MASS STORAGE =           0.5000
    CNST H MASS FLUX =           0.0000      CNST H MASS FLUX =           0.0000
      WELL MASS FLUX =           0.0000        WELL MASS FLUX =           0.0000

            TOTAL IN =          54.5339              TOTAL IN =           0.5000

          OUT:                                     OUT:
          ----                                     ----
        MASS STORAGE =           0.2827          MASS STORAGE =       2.3587E-11
    CNST H MASS FLUX =           0.0000      CNST H MASS FLUX =           0.0000
      WELL MASS FLUX =          54.2511        WELL MASS FLUX =           0.5000

           TOTAL OUT =          54.5339             TOTAL OUT =           0.5000

            IN - OUT =      -2.3462E-10              IN - OUT =      -2.3587E-11

 PERCENT DISCREPANCY =          -0.00     PERCENT DISCREPANCY =          -0.00






          TIME SUMMARY AT END OF TIME STEP         8 IN STRESS PERIOD         4
                    SECONDS     MINUTES      HOURS       DAYS        YEARS
                    -----------------------------------------------------------
   TIME STEP LENGTH 3.57784E+05  5963.1      99.384      4.1410     1.13375E-02
 STRESS PERIOD TIME 1.64745E+06  27457.      457.62      19.068     5.22045E-02
         TOTAL TIME 9.42345E+06 1.57057E+05  2617.6      109.07     0.29861    
1
 -------------------------------------------------------------------------------------
 
 SOLVING FOR HEAD 

 Outer-Iteration  Inner-Iteration  Backtracking  Number of        Incoming       Outgoing  Maximum HeadChange      Maximum Head Change
     Number           Count           Flag       Backtracks       Residual       Residual           Value              Location
        1                             0             0          0.456954E-01     0.456954E-01
        1                6                                                                       -0.265970                     1           GWF-node number
        1                6                                                                       -0.246586                     3           CLN-node number
        2                             0             0          0.636469E-13     0.636469E-13
        2                1                                                                        0.530345E-06               401           GWF-node number
        2                1                                                                        0.289502E-06                 3           CLN-node number
     2 CALLS TO SPARSE MATRIX SOLVER PACKAGE  IN FLOW TIME STEP       9 STRESS PERIOD       4

 TOTAL OF       2OUTER ITERATIONS
  MAXIMUM CHANGE FOR EACH ITERATION:
   MAX. CHANGE        NODE  MAX. CHANGE        NODE  MAX. CHANGE        NODE  MAX. CHANGE        NODE  MAX. CHANGE        NODE
 ------------------------------------------------------------------------------------------------------------------------------------
  -0.26597    ,          1  0.53035E-06,        401

  MAXIMUM CHANGE FOR CLN NODE AT EACH ITERATION:
   MAX. CHANGE    CLN-CELL  MAX. CHANGE    CLN-CELL  MAX. CHANGE    CLN-CELL  MAX. CHANGE    CLN-CELL  MAX. CHANGE    CLN-CELL
 ------------------------------------------------------------------------------------------------------------------------------------
  -0.24659    ,          3  0.28950E-06,          3

 HEAD/DRAWDOWN PRINTOUT FLAG = 1     TOTAL BUDGET PRINTOUT FLAG = 1
 CELL-BY-CELL FLOW TERM FLAG = 1
 CONCENTRATION PRINTOUT FLAG = 1

 OUTPUT FLAGS FOR ALL LAYERS ARE THE SAME:
   HEAD    DRAWDOWN  HEAD  DRAWDOWN    CONC    CONC
 PRINTOUT  PRINTOUT  SAVE    SAVE    PRINTOUT  SAVE
 ---------------------------------------------------
     0         0       1       1       0       1
 UBUDSVU SAVING "         STORAGE" ON UNIT  50 AT TIME STEP      9, STRESS PERIOD      4
 UBUDSV SAVING "     CLN STORAGE" ON UNIT 144 AT TIME STEP      9, STRESS PERIOD       4
 UBUDSVU SAVING "   CONSTANT HEAD" ON UNIT  50 AT TIME STEP      9, STRESS PERIOD      4
 UBUDSVU SAVING "   FLOW JA FACE " ON UNIT  50 AT TIME STEP      9, STRESS PERIOD      4
 UBUDSVU SAVING "             CLN" ON UNIT  50 AT TIME STEP      9, STRESS PERIOD      4
 UBUDSVU SAVING "  CLN CONST HEAD" ON UNIT 144 AT TIME STEP      9, STRESS PERIOD      4
 UBUDSVU SAVING "   FLOW CLN FACE" ON UNIT 144 AT TIME STEP      9, STRESS PERIOD      4
 UBUDSVU SAVING "             GWF" ON UNIT 144 AT TIME STEP      9, STRESS PERIOD      4
 UBUDSVU SAVING "           WELLS" ON UNIT  50 AT TIME STEP      9, STRESS PERIOD      4
 UBUDSVU SAVING "           WELLS" ON UNIT 144 AT TIME STEP      9, STRESS PERIOD      4

 HEAD WILL BE SAVED ON UNIT       30 AT END OF TIME STEP        9, STRESS PERIOD        4

 DRAWDOWN WILL BE SAVED ON UNIT   31 AT END OF TIME STEP   9, STRESS PERIOD    4

 CLN HEAD WILL BE SAVED ON UNIT   77 AT END OF TIME STEP   9, STRESS PERIOD    4
1
  VOLUMETRIC BUDGET FOR ENTIRE MODEL AT END OF TIME STEP       9 IN STRESS PERIOD       4
  ---------------------------------------------------------------------------------------

     CUMULATIVE VOLUMES      L**3       RATES FOR THIS TIME STEP      L**3/T
     ------------------                 ------------------------

           IN:                                      IN:
           ---                                      ---
             STORAGE =         570.1846               STORAGE =           5.0000
         CLN STORAGE =           0.0000           CLN STORAGE =           0.0000
       CONSTANT HEAD =           0.0000         CONSTANT HEAD =           0.0000
      CLN CONST HEAD =           0.0000        CLN CONST HEAD =           0.0000
               WELLS =           0.0000                 WELLS =           0.0000

            TOTAL IN =         570.1846              TOTAL IN =           5.0000

          OUT:                                     OUT:
          ----                                     ----
             STORAGE =           0.0000               STORAGE =           0.0000
         CLN STORAGE =           0.0000           CLN STORAGE =           0.0000
       CONSTANT HEAD =           0.0000         CONSTANT HEAD =           0.0000
      CLN CONST HEAD =           0.0000        CLN CONST HEAD =           0.0000
               WELLS =         570.1846                 WELLS =           5.0000

           TOTAL OUT =         570.1846             TOTAL OUT =           5.0000

            IN - OUT =       5.6887E-06              IN - OUT =       4.2584E-08

 PERCENT DISCREPANCY =           0.00     PERCENT DISCREPANCY =           0.00






          TIME SUMMARY AT END OF TIME STEP         9 IN STRESS PERIOD         4
                    SECONDS     MINUTES      HOURS       DAYS        YEARS
                    -----------------------------------------------------------
   TIME STEP LENGTH 4.29341E+05  7155.7      119.26      4.9692     1.36050E-02
 STRESS PERIOD TIME 2.07679E+06  34613.      576.89      24.037     6.58095E-02
         TOTAL TIME 9.85279E+06 1.64213E+05  2736.9      114.04     0.31222    
1
 ------------------------------------------------------------------------------------------------------------
 
 SOLVING FOR TRANSPORT 

 ------------------------------------------------------------------------------------------------------------------------
     1 CALLS TO SPARSE MATRIX SOLVER PACKAGE IN TRANSPORT TIME STEP       9 STRESS PERIOD       4 SPECIES  1

 TOTAL OF       1OUTER ITERATIONS
  MAXIMUM CHANGE FOR EACH ITERATION:
   MAX. CHANGE        NODE  MAX. CHANGE        NODE  MAX. CHANGE        NODE  MAX. CHANGE        NODE  MAX. CHANGE        NODE
 ------------------------------------------------------------------------------------------------------------------------------------
   0.58640E-10,        191

  MAXIMUM CHANGE FOR CLN NODE AT EACH ITERATION:
   MAX. CHANGE    CLN-CELL  MAX. CHANGE    CLN-CELL  MAX. CHANGE    CLN-CELL  MAX. CHANGE    CLN-CELL  MAX. CHANGE    CLN-CELL
 ------------------------------------------------------------------------------------------------------------------------------------
  -0.12057E-08,          2
     TRANSPORT SOLUTION COMPLETE FOR COMPONENT SPECIES NUMBER    1
     ------------------------------------------------------------
 UBUDSVU SAVING "    MASS STORAGE" ON UNIT 145 AT TIME STEP      9, STRESS PERIOD      4
 UBUDSVU SAVING "CLN MASS STORAGE" ON UNIT 145 AT TIME STEP      9, STRESS PERIOD      4
 UBUDSVU SAVING "CNST H MASS FLUX" ON UNIT 145 AT TIME STEP      9, STRESS PERIOD      4
 UBUDSVU SAVING "  WELL MASS FLUX" ON UNIT 145 AT TIME STEP      9, STRESS PERIOD      4

 TRANSPORT SOLUTION COMPLETE FOR ALL SPECIES, SORTING OUTPUT FOR CONCENTRATIONS AND MASS BALANCE
 ----------------------------------------------------------------------------------------------------
     TRANSPORT OUTPUT FOR COMPONENT SPECIES NUMBER    1
     ------------------------------------------------------------

 CONC WILL BE SAVED ON UNIT  132 AT END OF TIME STEP        9, STRESS PERIOD        4

 CLN CONC WILL BE SAVED ON UNIT  188 AT END OF TIME STEP   9, STRESS PERIOD    4
1
  VOLUMETRIC BUDGET FOR ENTIRE MODEL AT END OF TIME STEP       9 IN STRESS PERIOD       4
  ---------------------------------------------------------------------------------------

     CUMULATIVE VOLUMES      L**3       RATES FOR THIS TIME STEP      L**3/T
     ------------------                 ------------------------

           IN:                                      IN:
           ---                                      ---
        MASS STORAGE =          57.0185          MASS STORAGE =           0.5000
    CNST H MASS FLUX =           0.0000      CNST H MASS FLUX =           0.0000
      WELL MASS FLUX =           0.0000        WELL MASS FLUX =           0.0000

            TOTAL IN =          57.0185              TOTAL IN =           0.5000

          OUT:                                     OUT:
          ----                                     ----
        MASS STORAGE =           0.2827          MASS STORAGE =           0.0000
    CNST H MASS FLUX =           0.0000      CNST H MASS FLUX =           0.0000
      WELL MASS FLUX =          56.7357        WELL MASS FLUX =           0.5000

           TOTAL OUT =          57.0185             TOTAL OUT =           0.5000

            IN - OUT =      -1.7798E-10              IN - OUT =           0.0000

 PERCENT DISCREPANCY =          -0.00     PERCENT DISCREPANCY =           0.00






          TIME SUMMARY AT END OF TIME STEP         9 IN STRESS PERIOD         4
                    SECONDS     MINUTES      HOURS       DAYS        YEARS
                    -----------------------------------------------------------
   TIME STEP LENGTH 4.29341E+05  7155.7      119.26      4.9692     1.36050E-02
 STRESS PERIOD TIME 2.07679E+06  34613.      576.89      24.037     6.58095E-02
         TOTAL TIME 9.85279E+06 1.64213E+05  2736.9      114.04     0.31222    
1
 -------------------------------------------------------------------------------------
 
 SOLVING FOR HEAD 

 Outer-Iteration  Inner-Iteration  Backtracking  Number of        Incoming       Outgoing  Maximum HeadChange      Maximum Head Change
     Number           Count           Flag       Backtracks       Residual       Residual           Value              Location
        1                             0             0          0.454631E-01     0.454631E-01
        1                7                                                                       -0.317359                     1           GWF-node number
        1                7                                                                       -0.294497                     1           CLN-node number
        2                             0             0          0.453009E-14     0.453009E-14
        2                1                                                                       -0.682005E-07               417           GWF-node number
        2                1                                                                        0.311133E-07                 3           CLN-node number
     2 CALLS TO SPARSE MATRIX SOLVER PACKAGE  IN FLOW TIME STEP      10 STRESS PERIOD       4

 TOTAL OF       2OUTER ITERATIONS
  MAXIMUM CHANGE FOR EACH ITERATION:
   MAX. CHANGE        NODE  MAX. CHANGE        NODE  MAX. CHANGE        NODE  MAX. CHANGE        NODE  MAX. CHANGE        NODE
 ------------------------------------------------------------------------------------------------------------------------------------
  -0.31736    ,          1 -0.68201E-07,        417

  MAXIMUM CHANGE FOR CLN NODE AT EACH ITERATION:
   MAX. CHANGE    CLN-CELL  MAX. CHANGE    CLN-CELL  MAX. CHANGE    CLN-CELL  MAX. CHANGE    CLN-CELL  MAX. CHANGE    CLN-CELL
 ------------------------------------------------------------------------------------------------------------------------------------
  -0.29450    ,          1  0.31113E-07,          3

 HEAD/DRAWDOWN PRINTOUT FLAG = 1     TOTAL BUDGET PRINTOUT FLAG = 1
 CELL-BY-CELL FLOW TERM FLAG = 1
 CONCENTRATION PRINTOUT FLAG = 1

 OUTPUT FLAGS FOR ALL LAYERS ARE THE SAME:
   HEAD    DRAWDOWN  HEAD  DRAWDOWN    CONC    CONC
 PRINTOUT  PRINTOUT  SAVE    SAVE    PRINTOUT  SAVE
 ---------------------------------------------------
     0         0       1       1       0       1
 UBUDSVU SAVING "         STORAGE" ON UNIT  50 AT TIME STEP     10, STRESS PERIOD      4
 UBUDSV SAVING "     CLN STORAGE" ON UNIT 144 AT TIME STEP     10, STRESS PERIOD       4
 UBUDSVU SAVING "   CONSTANT HEAD" ON UNIT  50 AT TIME STEP     10, STRESS PERIOD      4
 UBUDSVU SAVING "   FLOW JA FACE " ON UNIT  50 AT TIME STEP     10, STRESS PERIOD      4
 UBUDSVU SAVING "             CLN" ON UNIT  50 AT TIME STEP     10, STRESS PERIOD      4
 UBUDSVU SAVING "  CLN CONST HEAD" ON UNIT 144 AT TIME STEP     10, STRESS PERIOD      4
 UBUDSVU SAVING "   FLOW CLN FACE" ON UNIT 144 AT TIME STEP     10, STRESS PERIOD      4
 UBUDSVU SAVING "             GWF" ON UNIT 144 AT TIME STEP     10, STRESS PERIOD      4
 UBUDSVU SAVING "           WELLS" ON UNIT  50 AT TIME STEP     10, STRESS PERIOD      4
 UBUDSVU SAVING "           WELLS" ON UNIT 144 AT TIME STEP     10, STRESS PERIOD      4

 HEAD WILL BE SAVED ON UNIT       30 AT END OF TIME STEP       10, STRESS PERIOD        4

 DRAWDOWN WILL BE SAVED ON UNIT   31 AT END OF TIME STEP  10, STRESS PERIOD    4

 CLN HEAD WILL BE SAVED ON UNIT   77 AT END OF TIME STEP  10, STRESS PERIOD    4
1
  VOLUMETRIC BUDGET FOR ENTIRE MODEL AT END OF TIME STEP      10 IN STRESS PERIOD       4
  ---------------------------------------------------------------------------------------

     CUMULATIVE VOLUMES      L**3       RATES FOR THIS TIME STEP      L**3/T
     ------------------                 ------------------------

           IN:                                      IN:
           ---                                      ---
             STORAGE =         600.0000               STORAGE =           5.0000
         CLN STORAGE =           0.0000           CLN STORAGE =           0.0000
       CONSTANT HEAD =           0.0000         CONSTANT HEAD =           0.0000
      CLN CONST HEAD =           0.0000        CLN CONST HEAD =           0.0000
               WELLS =           0.0000                 WELLS =           0.0000

            TOTAL IN =         600.0000              TOTAL IN =           5.0000

          OUT:                                     OUT:
          ----                                     ----
             STORAGE =           0.0000               STORAGE =           0.0000
         CLN STORAGE =           0.0000           CLN STORAGE =           0.0000
       CONSTANT HEAD =           0.0000         CONSTANT HEAD =           0.0000
      CLN CONST HEAD =           0.0000        CLN CONST HEAD =           0.0000
               WELLS =         600.0000                 WELLS =           5.0000

           TOTAL OUT =         600.0000             TOTAL OUT =           5.0000

            IN - OUT =       5.9952E-06              IN - OUT =       5.1387E-08

 PERCENT DISCREPANCY =           0.00     PERCENT DISCREPANCY =           0.00






          TIME SUMMARY AT END OF TIME STEP        10 IN STRESS PERIOD         4
                    SECONDS     MINUTES      HOURS       DAYS        YEARS
                    -----------------------------------------------------------
   TIME STEP LENGTH 5.15209E+05  8586.8      143.11      5.9631     1.63260E-02
 STRESS PERIOD TIME 2.59200E+06  43200.      720.00      30.000     8.21355E-02
         TOTAL TIME 1.03680E+07 1.72800E+05  2880.0      120.00     0.32854    
1
 ------------------------------------------------------------------------------------------------------------
 
 SOLVING FOR TRANSPORT 

 ------------------------------------------------------------------------------------------------------------------------
     1 CALLS TO SPARSE MATRIX SOLVER PACKAGE IN TRANSPORT TIME STEP      10 STRESS PERIOD       4 SPECIES  1

 TOTAL OF       1OUTER ITERATIONS
  MAXIMUM CHANGE FOR EACH ITERATION:
   MAX. CHANGE        NODE  MAX. CHANGE        NODE  MAX. CHANGE        NODE  MAX. CHANGE        NODE  MAX. CHANGE        NODE
 ------------------------------------------------------------------------------------------------------------------------------------
   0.83777E-11,        191

  MAXIMUM CHANGE FOR CLN NODE AT EACH ITERATION:
   MAX. CHANGE    CLN-CELL  MAX. CHANGE    CLN-CELL  MAX. CHANGE    CLN-CELL  MAX. CHANGE    CLN-CELL  MAX. CHANGE    CLN-CELL
 ------------------------------------------------------------------------------------------------------------------------------------
   0.66635E-09,          2
     TRANSPORT SOLUTION COMPLETE FOR COMPONENT SPECIES NUMBER    1
     ------------------------------------------------------------
 UBUDSVU SAVING "    MASS STORAGE" ON UNIT 145 AT TIME STEP     10, STRESS PERIOD      4
 UBUDSVU SAVING "CLN MASS STORAGE" ON UNIT 145 AT TIME STEP     10, STRESS PERIOD      4
 UBUDSVU SAVING "CNST H MASS FLUX" ON UNIT 145 AT TIME STEP     10, STRESS PERIOD      4
 UBUDSVU SAVING "  WELL MASS FLUX" ON UNIT 145 AT TIME STEP     10, STRESS PERIOD      4

 TRANSPORT SOLUTION COMPLETE FOR ALL SPECIES, SORTING OUTPUT FOR CONCENTRATIONS AND MASS BALANCE
 ----------------------------------------------------------------------------------------------------
     TRANSPORT OUTPUT FOR COMPONENT SPECIES NUMBER    1
     ------------------------------------------------------------

 CONC WILL BE SAVED ON UNIT  132 AT END OF TIME STEP       10, STRESS PERIOD        4

 CLN CONC WILL BE SAVED ON UNIT  188 AT END OF TIME STEP  10, STRESS PERIOD    4
1
  VOLUMETRIC BUDGET FOR ENTIRE MODEL AT END OF TIME STEP      10 IN STRESS PERIOD       4
  ---------------------------------------------------------------------------------------

     CUMULATIVE VOLUMES      L**3       RATES FOR THIS TIME STEP      L**3/T
     ------------------                 ------------------------

           IN:                                      IN:
           ---                                      ---
        MASS STORAGE =          60.0000          MASS STORAGE =           0.5000
    CNST H MASS FLUX =           0.0000      CNST H MASS FLUX =           0.0000
      WELL MASS FLUX =           0.0000        WELL MASS FLUX =           0.0000

            TOTAL IN =          60.0000              TOTAL IN =           0.5000

          OUT:                                     OUT:
          ----                                     ----
        MASS STORAGE =           0.2827          MASS STORAGE =       2.7913E-11
    CNST H MASS FLUX =           0.0000      CNST H MASS FLUX =           0.0000
      WELL MASS FLUX =          59.7173        WELL MASS FLUX =           0.5000

           TOTAL OUT =          60.0000             TOTAL OUT =           0.5000

            IN - OUT =      -1.6615E-10              IN - OUT =      -2.7913E-11

 PERCENT DISCREPANCY =          -0.00     PERCENT DISCREPANCY =          -0.00






          TIME SUMMARY AT END OF TIME STEP        10 IN STRESS PERIOD         4
                    SECONDS     MINUTES      HOURS       DAYS        YEARS
                    -----------------------------------------------------------
   TIME STEP LENGTH 5.15209E+05  8586.8      143.11      5.9631     1.63260E-02
 STRESS PERIOD TIME 2.59200E+06  43200.      720.00      30.000     8.21355E-02
         TOTAL TIME 1.03680E+07 1.72800E+05  2880.0      120.00     0.32854    
1
1
                            STRESS PERIOD NO.    5, LENGTH =   30.00000    
                            -----------------------------------------------

                              NUMBER OF TIME STEPS =        10

                               MULTIPLIER FOR DELT =     1.200

                            INITIAL TIME STEP SIZE =   1.155682    

 WEL -- WELL PACKAGE, VERSION 7, 5/2/2005 INPUT READ FROM UNIT   12

 WELL NO.  CLN-NODE       STRESS FACTOR         C01             
 ---------------------------------------------------------------
        1            3      -5.000           0.000           0.000    

      1 WELL 
 -------------------------------------------------------------------------------------
 
 SOLVING FOR HEAD 

 Outer-Iteration  Inner-Iteration  Backtracking  Number of        Incoming       Outgoing  Maximum HeadChange      Maximum Head Change
     Number           Count           Flag       Backtracks       Residual       Residual           Value              Location
        1                             0             0          0.451926E-01     0.451926E-01
        1                5                                                                       -0.614393E-01                 1           GWF-node number
        1                5                                                                       -0.570234E-01                 1           CLN-node number
        2                             0             0          0.478890E-14     0.478890E-14
        2                1                                                                        0.406672E-07               190           GWF-node number
        2                1                                                                        0.115022E-06                 3           CLN-node number


     2 CALLS TO SPARSE MATRIX SOLVER PACKAGE  IN FLOW TIME STEP       1 STRESS PERIOD       5

 TOTAL OF       2OUTER ITERATIONS
  MAXIMUM CHANGE FOR EACH ITERATION:
   MAX. CHANGE        NODE  MAX. CHANGE        NODE  MAX. CHANGE        NODE  MAX. CHANGE        NODE  MAX. CHANGE        NODE
 ------------------------------------------------------------------------------------------------------------------------------------
  -0.61439E-01,          1  0.40667E-07,        190

  MAXIMUM CHANGE FOR CLN NODE AT EACH ITERATION:
   MAX. CHANGE    CLN-CELL  MAX. CHANGE    CLN-CELL  MAX. CHANGE    CLN-CELL  MAX. CHANGE    CLN-CELL  MAX. CHANGE    CLN-CELL
 ------------------------------------------------------------------------------------------------------------------------------------
  -0.57023E-01,          1  0.11502E-06,          3

 HEAD/DRAWDOWN PRINTOUT FLAG = 1     TOTAL BUDGET PRINTOUT FLAG = 1
 CELL-BY-CELL FLOW TERM FLAG = 1
 CONCENTRATION PRINTOUT FLAG = 1

 OUTPUT FLAGS FOR ALL LAYERS ARE THE SAME:
   HEAD    DRAWDOWN  HEAD  DRAWDOWN    CONC    CONC
 PRINTOUT  PRINTOUT  SAVE    SAVE    PRINTOUT  SAVE
 ---------------------------------------------------
     0         0       1       1       0       1
 UBUDSVU SAVING "         STORAGE" ON UNIT  50 AT TIME STEP      1, STRESS PERIOD      5
 UBUDSV SAVING "     CLN STORAGE" ON UNIT 144 AT TIME STEP      1, STRESS PERIOD       5
 UBUDSVU SAVING "   CONSTANT HEAD" ON UNIT  50 AT TIME STEP      1, STRESS PERIOD      5
 UBUDSVU SAVING "   FLOW JA FACE " ON UNIT  50 AT TIME STEP      1, STRESS PERIOD      5
 UBUDSVU SAVING "             CLN" ON UNIT  50 AT TIME STEP      1, STRESS PERIOD      5
 UBUDSVU SAVING "  CLN CONST HEAD" ON UNIT 144 AT TIME STEP      1, STRESS PERIOD      5
 UBUDSVU SAVING "   FLOW CLN FACE" ON UNIT 144 AT TIME STEP      1, STRESS PERIOD      5
 UBUDSVU SAVING "             GWF" ON UNIT 144 AT TIME STEP      1, STRESS PERIOD      5
 UBUDSVU SAVING "           WELLS" ON UNIT  50 AT TIME STEP      1, STRESS PERIOD      5
 UBUDSVU SAVING "           WELLS" ON UNIT 144 AT TIME STEP      1, STRESS PERIOD      5

 HEAD WILL BE SAVED ON UNIT       30 AT END OF TIME STEP        1, STRESS PERIOD        5

 DRAWDOWN WILL BE SAVED ON UNIT   31 AT END OF TIME STEP   1, STRESS PERIOD    5

 CLN HEAD WILL BE SAVED ON UNIT   77 AT END OF TIME STEP   1, STRESS PERIOD    5
1
  VOLUMETRIC BUDGET FOR ENTIRE MODEL AT END OF TIME STEP       1 IN STRESS PERIOD       5
  ---------------------------------------------------------------------------------------

     CUMULATIVE VOLUMES      L**3       RATES FOR THIS TIME STEP      L**3/T
     ------------------                 ------------------------

           IN:                                      IN:
           ---                                      ---
             STORAGE =         605.7784               STORAGE =           5.0000
         CLN STORAGE =           0.0000           CLN STORAGE =           0.0000
       CONSTANT HEAD =           0.0000         CONSTANT HEAD =           0.0000
      CLN CONST HEAD =           0.0000        CLN CONST HEAD =           0.0000
               WELLS =           0.0000                 WELLS =           0.0000

            TOTAL IN =         605.7784              TOTAL IN =           5.0000

          OUT:                                     OUT:
          ----                                     ----
             STORAGE =           0.0000               STORAGE =           0.0000
         CLN STORAGE =           0.0000           CLN STORAGE =           0.0000
       CONSTANT HEAD =           0.0000         CONSTANT HEAD =           0.0000
      CLN CONST HEAD =           0.0000        CLN CONST HEAD =           0.0000
               WELLS =         605.7784                 WELLS =           5.0000

           TOTAL OUT =         605.7784             TOTAL OUT =           5.0000

            IN - OUT =       6.0377E-06              IN - OUT =       3.6815E-08

 PERCENT DISCREPANCY =           0.00     PERCENT DISCREPANCY =           0.00






          TIME SUMMARY AT END OF TIME STEP         1 IN STRESS PERIOD         5
                    SECONDS     MINUTES      HOURS       DAYS        YEARS
                    -----------------------------------------------------------
   TIME STEP LENGTH  99851.      1664.2      27.736      1.1557     3.16409E-03
 STRESS PERIOD TIME  99851.      1664.2      27.736      1.1557     3.16409E-03
         TOTAL TIME 1.04679E+07 1.74464E+05  2907.7      121.16     0.33171    
1
 ------------------------------------------------------------------------------------------------------------
 
 SOLVING FOR TRANSPORT 

 ------------------------------------------------------------------------------------------------------------------------
     1 CALLS TO SPARSE MATRIX SOLVER PACKAGE IN TRANSPORT TIME STEP       1 STRESS PERIOD       5 SPECIES  1

 TOTAL OF       1OUTER ITERATIONS
  MAXIMUM CHANGE FOR EACH ITERATION:
   MAX. CHANGE        NODE  MAX. CHANGE        NODE  MAX. CHANGE        NODE  MAX. CHANGE        NODE  MAX. CHANGE        NODE
 ------------------------------------------------------------------------------------------------------------------------------------
   0.47247E-11,        191

  MAXIMUM CHANGE FOR CLN NODE AT EACH ITERATION:
   MAX. CHANGE    CLN-CELL  MAX. CHANGE    CLN-CELL  MAX. CHANGE    CLN-CELL  MAX. CHANGE    CLN-CELL  MAX. CHANGE    CLN-CELL
 ------------------------------------------------------------------------------------------------------------------------------------
  -0.54009E-09,          3
     TRANSPORT SOLUTION COMPLETE FOR COMPONENT SPECIES NUMBER    1
     ------------------------------------------------------------
 UBUDSVU SAVING "    MASS STORAGE" ON UNIT 145 AT TIME STEP      1, STRESS PERIOD      5
 UBUDSVU SAVING "CLN MASS STORAGE" ON UNIT 145 AT TIME STEP      1, STRESS PERIOD      5
 UBUDSVU SAVING "CNST H MASS FLUX" ON UNIT 145 AT TIME STEP      1, STRESS PERIOD      5
 UBUDSVU SAVING "  WELL MASS FLUX" ON UNIT 145 AT TIME STEP      1, STRESS PERIOD      5

 TRANSPORT SOLUTION COMPLETE FOR ALL SPECIES, SORTING OUTPUT FOR CONCENTRATIONS AND MASS BALANCE
 ----------------------------------------------------------------------------------------------------
     TRANSPORT OUTPUT FOR COMPONENT SPECIES NUMBER    1
     ------------------------------------------------------------

 CONC WILL BE SAVED ON UNIT  132 AT END OF TIME STEP        1, STRESS PERIOD        5

 CLN CONC WILL BE SAVED ON UNIT  188 AT END OF TIME STEP   1, STRESS PERIOD    5
1
  VOLUMETRIC BUDGET FOR ENTIRE MODEL AT END OF TIME STEP       1 IN STRESS PERIOD       5
  ---------------------------------------------------------------------------------------

     CUMULATIVE VOLUMES      L**3       RATES FOR THIS TIME STEP      L**3/T
     ------------------                 ------------------------

           IN:                                      IN:
           ---                                      ---
        MASS STORAGE =          60.5778          MASS STORAGE =           0.5000
    CNST H MASS FLUX =           0.0000      CNST H MASS FLUX =           0.0000
      WELL MASS FLUX =           0.0000        WELL MASS FLUX =           0.0000

            TOTAL IN =          60.5778              TOTAL IN =           0.5000

          OUT:                                     OUT:
          ----                                     ----
        MASS STORAGE =           0.2827          MASS STORAGE =       3.9355E-10
    CNST H MASS FLUX =           0.0000      CNST H MASS FLUX =           0.0000
      WELL MASS FLUX =          60.2951        WELL MASS FLUX =           0.5000

           TOTAL OUT =          60.5778             TOTAL OUT =           0.5000

            IN - OUT =      -1.6593E-10              IN - OUT =      -3.9355E-10

 PERCENT DISCREPANCY =          -0.00     PERCENT DISCREPANCY =          -0.00






          TIME SUMMARY AT END OF TIME STEP         1 IN STRESS PERIOD         5
                    SECONDS     MINUTES      HOURS       DAYS        YEARS
                    -----------------------------------------------------------
   TIME STEP LENGTH  99851.      1664.2      27.736      1.1557     3.16409E-03
 STRESS PERIOD TIME  99851.      1664.2      27.736      1.1557     3.16409E-03
         TOTAL TIME 1.04679E+07 1.74464E+05  2907.7      121.16     0.33171    
1
 -------------------------------------------------------------------------------------
 
 SOLVING FOR HEAD 

 Outer-Iteration  Inner-Iteration  Backtracking  Number of        Incoming       Outgoing  Maximum HeadChange      Maximum Head Change
     Number           Count           Flag       Backtracks       Residual       Residual           Value              Location
        1                             0             0          0.451408E-01     0.451408E-01
        1                5                                                                       -0.736320E-01                 1           GWF-node number
        1                5                                                                       -0.683542E-01                 3           CLN-node number
        2                             0             0          0.269038E-14     0.269038E-14
        2                1                                                                        0.329811E-07               190           GWF-node number
        2                1                                                                        0.953275E-07                 3           CLN-node number
     2 CALLS TO SPARSE MATRIX SOLVER PACKAGE  IN FLOW TIME STEP       2 STRESS PERIOD       5

 TOTAL OF       2OUTER ITERATIONS
  MAXIMUM CHANGE FOR EACH ITERATION:
   MAX. CHANGE        NODE  MAX. CHANGE        NODE  MAX. CHANGE        NODE  MAX. CHANGE        NODE  MAX. CHANGE        NODE
 ------------------------------------------------------------------------------------------------------------------------------------
  -0.73632E-01,          1  0.32981E-07,        190

  MAXIMUM CHANGE FOR CLN NODE AT EACH ITERATION:
   MAX. CHANGE    CLN-CELL  MAX. CHANGE    CLN-CELL  MAX. CHANGE    CLN-CELL  MAX. CHANGE    CLN-CELL  MAX. CHANGE    CLN-CELL
 ------------------------------------------------------------------------------------------------------------------------------------
  -0.68354E-01,          3  0.95327E-07,          3

 HEAD/DRAWDOWN PRINTOUT FLAG = 1     TOTAL BUDGET PRINTOUT FLAG = 1
 CELL-BY-CELL FLOW TERM FLAG = 1
 CONCENTRATION PRINTOUT FLAG = 1

 OUTPUT FLAGS FOR ALL LAYERS ARE THE SAME:
   HEAD    DRAWDOWN  HEAD  DRAWDOWN    CONC    CONC
 PRINTOUT  PRINTOUT  SAVE    SAVE    PRINTOUT  SAVE
 ---------------------------------------------------
     0         0       1       1       0       1
 UBUDSVU SAVING "         STORAGE" ON UNIT  50 AT TIME STEP      2, STRESS PERIOD      5
 UBUDSV SAVING "     CLN STORAGE" ON UNIT 144 AT TIME STEP      2, STRESS PERIOD       5
 UBUDSVU SAVING "   CONSTANT HEAD" ON UNIT  50 AT TIME STEP      2, STRESS PERIOD      5
 UBUDSVU SAVING "   FLOW JA FACE " ON UNIT  50 AT TIME STEP      2, STRESS PERIOD      5
 UBUDSVU SAVING "             CLN" ON UNIT  50 AT TIME STEP      2, STRESS PERIOD      5
 UBUDSVU SAVING "  CLN CONST HEAD" ON UNIT 144 AT TIME STEP      2, STRESS PERIOD      5
 UBUDSVU SAVING "   FLOW CLN FACE" ON UNIT 144 AT TIME STEP      2, STRESS PERIOD      5
 UBUDSVU SAVING "             GWF" ON UNIT 144 AT TIME STEP      2, STRESS PERIOD      5
 UBUDSVU SAVING "           WELLS" ON UNIT  50 AT TIME STEP      2, STRESS PERIOD      5
 UBUDSVU SAVING "           WELLS" ON UNIT 144 AT TIME STEP      2, STRESS PERIOD      5

 HEAD WILL BE SAVED ON UNIT       30 AT END OF TIME STEP        2, STRESS PERIOD        5

 DRAWDOWN WILL BE SAVED ON UNIT   31 AT END OF TIME STEP   2, STRESS PERIOD    5

 CLN HEAD WILL BE SAVED ON UNIT   77 AT END OF TIME STEP   2, STRESS PERIOD    5
1
  VOLUMETRIC BUDGET FOR ENTIRE MODEL AT END OF TIME STEP       2 IN STRESS PERIOD       5
  ---------------------------------------------------------------------------------------

     CUMULATIVE VOLUMES      L**3       RATES FOR THIS TIME STEP      L**3/T
     ------------------                 ------------------------

           IN:                                      IN:
           ---                                      ---
             STORAGE =         612.7125               STORAGE =           5.0000
         CLN STORAGE =           0.0000           CLN STORAGE =           0.0000
       CONSTANT HEAD =           0.0000         CONSTANT HEAD =           0.0000
      CLN CONST HEAD =           0.0000        CLN CONST HEAD =           0.0000
               WELLS =           0.0000                 WELLS =           0.0000

            TOTAL IN =         612.7125              TOTAL IN =           5.0000

          OUT:                                     OUT:
          ----                                     ----
             STORAGE =           0.0000               STORAGE =           0.0000
         CLN STORAGE =           0.0000           CLN STORAGE =           0.0000
       CONSTANT HEAD =           0.0000         CONSTANT HEAD =           0.0000
      CLN CONST HEAD =           0.0000        CLN CONST HEAD =           0.0000
               WELLS =         612.7125                 WELLS =           5.0000

           TOTAL OUT =         612.7125             TOTAL OUT =           5.0000

            IN - OUT =       6.1148E-06              IN - OUT =       5.5615E-08

 PERCENT DISCREPANCY =           0.00     PERCENT DISCREPANCY =           0.00






          TIME SUMMARY AT END OF TIME STEP         2 IN STRESS PERIOD         5
                    SECONDS     MINUTES      HOURS       DAYS        YEARS
                    -----------------------------------------------------------
   TIME STEP LENGTH 1.19821E+05  1997.0      33.284      1.3868     3.79690E-03
 STRESS PERIOD TIME 2.19672E+05  3661.2      61.020      2.5425     6.96099E-03
         TOTAL TIME 1.05877E+07 1.76461E+05  2941.0      122.54     0.33550    
1
 ------------------------------------------------------------------------------------------------------------
 
 SOLVING FOR TRANSPORT 

 ------------------------------------------------------------------------------------------------------------------------
     1 CALLS TO SPARSE MATRIX SOLVER PACKAGE IN TRANSPORT TIME STEP       2 STRESS PERIOD       5 SPECIES  1

 TOTAL OF       1OUTER ITERATIONS
  MAXIMUM CHANGE FOR EACH ITERATION:
   MAX. CHANGE        NODE  MAX. CHANGE        NODE  MAX. CHANGE        NODE  MAX. CHANGE        NODE  MAX. CHANGE        NODE
 ------------------------------------------------------------------------------------------------------------------------------------
   0.48096E-11,        191

  MAXIMUM CHANGE FOR CLN NODE AT EACH ITERATION:
   MAX. CHANGE    CLN-CELL  MAX. CHANGE    CLN-CELL  MAX. CHANGE    CLN-CELL  MAX. CHANGE    CLN-CELL  MAX. CHANGE    CLN-CELL
 ------------------------------------------------------------------------------------------------------------------------------------
   0.10296E-08,          2
     TRANSPORT SOLUTION COMPLETE FOR COMPONENT SPECIES NUMBER    1
     ------------------------------------------------------------
 UBUDSVU SAVING "    MASS STORAGE" ON UNIT 145 AT TIME STEP      2, STRESS PERIOD      5
 UBUDSVU SAVING "CLN MASS STORAGE" ON UNIT 145 AT TIME STEP      2, STRESS PERIOD      5
 UBUDSVU SAVING "CNST H MASS FLUX" ON UNIT 145 AT TIME STEP      2, STRESS PERIOD      5
 UBUDSVU SAVING "  WELL MASS FLUX" ON UNIT 145 AT TIME STEP      2, STRESS PERIOD      5

 TRANSPORT SOLUTION COMPLETE FOR ALL SPECIES, SORTING OUTPUT FOR CONCENTRATIONS AND MASS BALANCE
 ----------------------------------------------------------------------------------------------------
     TRANSPORT OUTPUT FOR COMPONENT SPECIES NUMBER    1
     ------------------------------------------------------------

 CONC WILL BE SAVED ON UNIT  132 AT END OF TIME STEP        2, STRESS PERIOD        5

 CLN CONC WILL BE SAVED ON UNIT  188 AT END OF TIME STEP   2, STRESS PERIOD    5
1
  VOLUMETRIC BUDGET FOR ENTIRE MODEL AT END OF TIME STEP       2 IN STRESS PERIOD       5
  ---------------------------------------------------------------------------------------

     CUMULATIVE VOLUMES      L**3       RATES FOR THIS TIME STEP      L**3/T
     ------------------                 ------------------------

           IN:                                      IN:
           ---                                      ---
        MASS STORAGE =          61.2712          MASS STORAGE =           0.5000
    CNST H MASS FLUX =           0.0000      CNST H MASS FLUX =           0.0000
      WELL MASS FLUX =           0.0000        WELL MASS FLUX =           0.0000

            TOTAL IN =          61.2712              TOTAL IN =           0.5000

          OUT:                                     OUT:
          ----                                     ----
        MASS STORAGE =           0.2827          MASS STORAGE =       7.1795E-10
    CNST H MASS FLUX =           0.0000      CNST H MASS FLUX =           0.0000
      WELL MASS FLUX =          60.9885        WELL MASS FLUX =           0.5000

           TOTAL OUT =          61.2712             TOTAL OUT =           0.5000

            IN - OUT =      -1.6573E-10              IN - OUT =      -7.1795E-10

 PERCENT DISCREPANCY =          -0.00     PERCENT DISCREPANCY =          -0.00






          TIME SUMMARY AT END OF TIME STEP         2 IN STRESS PERIOD         5
                    SECONDS     MINUTES      HOURS       DAYS        YEARS
                    -----------------------------------------------------------
   TIME STEP LENGTH 1.19821E+05  1997.0      33.284      1.3868     3.79690E-03
 STRESS PERIOD TIME 2.19672E+05  3661.2      61.020      2.5425     6.96099E-03
         TOTAL TIME 1.05877E+07 1.76461E+05  2941.0      122.54     0.33550    
1
 -------------------------------------------------------------------------------------
 
 SOLVING FOR HEAD 

 Outer-Iteration  Inner-Iteration  Backtracking  Number of        Incoming       Outgoing  Maximum HeadChange      Maximum Head Change
     Number           Count           Flag       Backtracks       Residual       Residual           Value              Location
        1                             0             0          0.450790E-01     0.450790E-01
        1                5                                                                       -0.882236E-01                 1           GWF-node number
        1                5                                                                       -0.819203E-01                 3           CLN-node number
        2                             0             0          0.951837E-15     0.951837E-15
        2                1                                                                       -0.307828E-07               190           GWF-node number
        2                1                                                                       -0.630743E-07                 3           CLN-node number
     2 CALLS TO SPARSE MATRIX SOLVER PACKAGE  IN FLOW TIME STEP       3 STRESS PERIOD       5

 TOTAL OF       2OUTER ITERATIONS
  MAXIMUM CHANGE FOR EACH ITERATION:
   MAX. CHANGE        NODE  MAX. CHANGE        NODE  MAX. CHANGE        NODE  MAX. CHANGE        NODE  MAX. CHANGE        NODE
 ------------------------------------------------------------------------------------------------------------------------------------
  -0.88224E-01,          1 -0.30783E-07,        190

  MAXIMUM CHANGE FOR CLN NODE AT EACH ITERATION:
   MAX. CHANGE    CLN-CELL  MAX. CHANGE    CLN-CELL  MAX. CHANGE    CLN-CELL  MAX. CHANGE    CLN-CELL  MAX. CHANGE    CLN-CELL
 ------------------------------------------------------------------------------------------------------------------------------------
  -0.81920E-01,          3 -0.63074E-07,          3

 HEAD/DRAWDOWN PRINTOUT FLAG = 1     TOTAL BUDGET PRINTOUT FLAG = 1
 CELL-BY-CELL FLOW TERM FLAG = 1
 CONCENTRATION PRINTOUT FLAG = 1

 OUTPUT FLAGS FOR ALL LAYERS ARE THE SAME:
   HEAD    DRAWDOWN  HEAD  DRAWDOWN    CONC    CONC
 PRINTOUT  PRINTOUT  SAVE    SAVE    PRINTOUT  SAVE
 ---------------------------------------------------
     0         0       1       1       0       1
 UBUDSVU SAVING "         STORAGE" ON UNIT  50 AT TIME STEP      3, STRESS PERIOD      5
 UBUDSV SAVING "     CLN STORAGE" ON UNIT 144 AT TIME STEP      3, STRESS PERIOD       5
 UBUDSVU SAVING "   CONSTANT HEAD" ON UNIT  50 AT TIME STEP      3, STRESS PERIOD      5
 UBUDSVU SAVING "   FLOW JA FACE " ON UNIT  50 AT TIME STEP      3, STRESS PERIOD      5
 UBUDSVU SAVING "             CLN" ON UNIT  50 AT TIME STEP      3, STRESS PERIOD      5
 UBUDSVU SAVING "  CLN CONST HEAD" ON UNIT 144 AT TIME STEP      3, STRESS PERIOD      5
 UBUDSVU SAVING "   FLOW CLN FACE" ON UNIT 144 AT TIME STEP      3, STRESS PERIOD      5
 UBUDSVU SAVING "             GWF" ON UNIT 144 AT TIME STEP      3, STRESS PERIOD      5
 UBUDSVU SAVING "           WELLS" ON UNIT  50 AT TIME STEP      3, STRESS PERIOD      5
 UBUDSVU SAVING "           WELLS" ON UNIT 144 AT TIME STEP      3, STRESS PERIOD      5

 HEAD WILL BE SAVED ON UNIT       30 AT END OF TIME STEP        3, STRESS PERIOD        5

 DRAWDOWN WILL BE SAVED ON UNIT   31 AT END OF TIME STEP   3, STRESS PERIOD    5

 CLN HEAD WILL BE SAVED ON UNIT   77 AT END OF TIME STEP   3, STRESS PERIOD    5
1
  VOLUMETRIC BUDGET FOR ENTIRE MODEL AT END OF TIME STEP       3 IN STRESS PERIOD       5
  ---------------------------------------------------------------------------------------

     CUMULATIVE VOLUMES      L**3       RATES FOR THIS TIME STEP      L**3/T
     ------------------                 ------------------------

           IN:                                      IN:
           ---                                      ---
             STORAGE =         621.0334               STORAGE =           5.0000
         CLN STORAGE =           0.0000           CLN STORAGE =           0.0000
       CONSTANT HEAD =           0.0000         CONSTANT HEAD =           0.0000
      CLN CONST HEAD =           0.0000        CLN CONST HEAD =           0.0000
               WELLS =           0.0000                 WELLS =           0.0000

            TOTAL IN =         621.0334              TOTAL IN =           5.0000

          OUT:                                     OUT:
          ----                                     ----
             STORAGE =           0.0000               STORAGE =           0.0000
         CLN STORAGE =           0.0000           CLN STORAGE =           0.0000
       CONSTANT HEAD =           0.0000         CONSTANT HEAD =           0.0000
      CLN CONST HEAD =           0.0000        CLN CONST HEAD =           0.0000
               WELLS =         621.0334                 WELLS =           5.0000

           TOTAL OUT =         621.0334             TOTAL OUT =           5.0000

            IN - OUT =       6.1963E-06              IN - OUT =       4.8967E-08

 PERCENT DISCREPANCY =           0.00     PERCENT DISCREPANCY =           0.00






          TIME SUMMARY AT END OF TIME STEP         3 IN STRESS PERIOD         5
                    SECONDS     MINUTES      HOURS       DAYS        YEARS
                    -----------------------------------------------------------
   TIME STEP LENGTH 1.43785E+05  2396.4      39.940      1.6642     4.55628E-03
 STRESS PERIOD TIME 3.63458E+05  6057.6      100.96      4.2067     1.15173E-02
         TOTAL TIME 1.07315E+07 1.78858E+05  2981.0      124.21     0.34006    
1
 ------------------------------------------------------------------------------------------------------------
 
 SOLVING FOR TRANSPORT 

 ------------------------------------------------------------------------------------------------------------------------
     1 CALLS TO SPARSE MATRIX SOLVER PACKAGE IN TRANSPORT TIME STEP       3 STRESS PERIOD       5 SPECIES  1

 TOTAL OF       1OUTER ITERATIONS
  MAXIMUM CHANGE FOR EACH ITERATION:
   MAX. CHANGE        NODE  MAX. CHANGE        NODE  MAX. CHANGE        NODE  MAX. CHANGE        NODE  MAX. CHANGE        NODE
 ------------------------------------------------------------------------------------------------------------------------------------
  -0.40243E-11,        191

  MAXIMUM CHANGE FOR CLN NODE AT EACH ITERATION:
   MAX. CHANGE    CLN-CELL  MAX. CHANGE    CLN-CELL  MAX. CHANGE    CLN-CELL  MAX. CHANGE    CLN-CELL  MAX. CHANGE    CLN-CELL
 ------------------------------------------------------------------------------------------------------------------------------------
  -0.72660E-09,          2
     TRANSPORT SOLUTION COMPLETE FOR COMPONENT SPECIES NUMBER    1
     ------------------------------------------------------------
 UBUDSVU SAVING "    MASS STORAGE" ON UNIT 145 AT TIME STEP      3, STRESS PERIOD      5
 UBUDSVU SAVING "CLN MASS STORAGE" ON UNIT 145 AT TIME STEP      3, STRESS PERIOD      5
 UBUDSVU SAVING "CNST H MASS FLUX" ON UNIT 145 AT TIME STEP      3, STRESS PERIOD      5
 UBUDSVU SAVING "  WELL MASS FLUX" ON UNIT 145 AT TIME STEP      3, STRESS PERIOD      5

 TRANSPORT SOLUTION COMPLETE FOR ALL SPECIES, SORTING OUTPUT FOR CONCENTRATIONS AND MASS BALANCE
 ----------------------------------------------------------------------------------------------------
     TRANSPORT OUTPUT FOR COMPONENT SPECIES NUMBER    1
     ------------------------------------------------------------

 CONC WILL BE SAVED ON UNIT  132 AT END OF TIME STEP        3, STRESS PERIOD        5

 CLN CONC WILL BE SAVED ON UNIT  188 AT END OF TIME STEP   3, STRESS PERIOD    5
1
  VOLUMETRIC BUDGET FOR ENTIRE MODEL AT END OF TIME STEP       3 IN STRESS PERIOD       5
  ---------------------------------------------------------------------------------------

     CUMULATIVE VOLUMES      L**3       RATES FOR THIS TIME STEP      L**3/T
     ------------------                 ------------------------

           IN:                                      IN:
           ---                                      ---
        MASS STORAGE =          62.1033          MASS STORAGE =           0.5000
    CNST H MASS FLUX =           0.0000      CNST H MASS FLUX =           0.0000
      WELL MASS FLUX =           0.0000        WELL MASS FLUX =           0.0000

            TOTAL IN =          62.1033              TOTAL IN =           0.5000

          OUT:                                     OUT:
          ----                                     ----
        MASS STORAGE =           0.2827          MASS STORAGE =       4.6275E-10
    CNST H MASS FLUX =           0.0000      CNST H MASS FLUX =           0.0000
      WELL MASS FLUX =          61.8206        WELL MASS FLUX =           0.5000

           TOTAL OUT =          62.1033             TOTAL OUT =           0.5000

            IN - OUT =      -1.6634E-10              IN - OUT =      -4.6275E-10

 PERCENT DISCREPANCY =          -0.00     PERCENT DISCREPANCY =          -0.00






          TIME SUMMARY AT END OF TIME STEP         3 IN STRESS PERIOD         5
                    SECONDS     MINUTES      HOURS       DAYS        YEARS
                    -----------------------------------------------------------
   TIME STEP LENGTH 1.43785E+05  2396.4      39.940      1.6642     4.55628E-03
 STRESS PERIOD TIME 3.63458E+05  6057.6      100.96      4.2067     1.15173E-02
         TOTAL TIME 1.07315E+07 1.78858E+05  2981.0      124.21     0.34006    
1
 -------------------------------------------------------------------------------------
 
 SOLVING FOR HEAD 

 Outer-Iteration  Inner-Iteration  Backtracking  Number of        Incoming       Outgoing  Maximum HeadChange      Maximum Head Change
     Number           Count           Flag       Backtracks       Residual       Residual           Value              Location
        1                             0             0          0.450054E-01     0.450054E-01
        1                5                                                                       -0.105678                     1           GWF-node number
        1                5                                                                       -0.981565E-01                 1           CLN-node number
        2                             0             0          0.101885E-13     0.101885E-13
        2                1                                                                       -0.730707E-07               190           GWF-node number
        2                1                                                                       -0.128847E-06                 3           CLN-node number
     2 CALLS TO SPARSE MATRIX SOLVER PACKAGE  IN FLOW TIME STEP       4 STRESS PERIOD       5

 TOTAL OF       2OUTER ITERATIONS
  MAXIMUM CHANGE FOR EACH ITERATION:
   MAX. CHANGE        NODE  MAX. CHANGE        NODE  MAX. CHANGE        NODE  MAX. CHANGE        NODE  MAX. CHANGE        NODE
 ------------------------------------------------------------------------------------------------------------------------------------
  -0.10568    ,          1 -0.73071E-07,        190

  MAXIMUM CHANGE FOR CLN NODE AT EACH ITERATION:
   MAX. CHANGE    CLN-CELL  MAX. CHANGE    CLN-CELL  MAX. CHANGE    CLN-CELL  MAX. CHANGE    CLN-CELL  MAX. CHANGE    CLN-CELL
 ------------------------------------------------------------------------------------------------------------------------------------
  -0.98157E-01,          1 -0.12885E-06,          3

 HEAD/DRAWDOWN PRINTOUT FLAG = 1     TOTAL BUDGET PRINTOUT FLAG = 1
 CELL-BY-CELL FLOW TERM FLAG = 1
 CONCENTRATION PRINTOUT FLAG = 1

 OUTPUT FLAGS FOR ALL LAYERS ARE THE SAME:
   HEAD    DRAWDOWN  HEAD  DRAWDOWN    CONC    CONC
 PRINTOUT  PRINTOUT  SAVE    SAVE    PRINTOUT  SAVE
 ---------------------------------------------------
     0         0       1       1       0       1
 UBUDSVU SAVING "         STORAGE" ON UNIT  50 AT TIME STEP      4, STRESS PERIOD      5
 UBUDSV SAVING "     CLN STORAGE" ON UNIT 144 AT TIME STEP      4, STRESS PERIOD       5
 UBUDSVU SAVING "   CONSTANT HEAD" ON UNIT  50 AT TIME STEP      4, STRESS PERIOD      5
 UBUDSVU SAVING "   FLOW JA FACE " ON UNIT  50 AT TIME STEP      4, STRESS PERIOD      5
 UBUDSVU SAVING "             CLN" ON UNIT  50 AT TIME STEP      4, STRESS PERIOD      5
 UBUDSVU SAVING "  CLN CONST HEAD" ON UNIT 144 AT TIME STEP      4, STRESS PERIOD      5
 UBUDSVU SAVING "   FLOW CLN FACE" ON UNIT 144 AT TIME STEP      4, STRESS PERIOD      5
 UBUDSVU SAVING "             GWF" ON UNIT 144 AT TIME STEP      4, STRESS PERIOD      5
 UBUDSVU SAVING "           WELLS" ON UNIT  50 AT TIME STEP      4, STRESS PERIOD      5
 UBUDSVU SAVING "           WELLS" ON UNIT 144 AT TIME STEP      4, STRESS PERIOD      5

 HEAD WILL BE SAVED ON UNIT       30 AT END OF TIME STEP        4, STRESS PERIOD        5

 DRAWDOWN WILL BE SAVED ON UNIT   31 AT END OF TIME STEP   4, STRESS PERIOD    5

 CLN HEAD WILL BE SAVED ON UNIT   77 AT END OF TIME STEP   4, STRESS PERIOD    5
1
  VOLUMETRIC BUDGET FOR ENTIRE MODEL AT END OF TIME STEP       4 IN STRESS PERIOD       5
  ---------------------------------------------------------------------------------------

     CUMULATIVE VOLUMES      L**3       RATES FOR THIS TIME STEP      L**3/T
     ------------------                 ------------------------

           IN:                                      IN:
           ---                                      ---
             STORAGE =         631.0185               STORAGE =           5.0000
         CLN STORAGE =           0.0000           CLN STORAGE =           0.0000
       CONSTANT HEAD =           0.0000         CONSTANT HEAD =           0.0000
      CLN CONST HEAD =           0.0000        CLN CONST HEAD =           0.0000
               WELLS =           0.0000                 WELLS =           0.0000

            TOTAL IN =         631.0185              TOTAL IN =           5.0000

          OUT:                                     OUT:
          ----                                     ----
             STORAGE =           0.0000               STORAGE =           0.0000
         CLN STORAGE =           0.0000           CLN STORAGE =           0.0000
       CONSTANT HEAD =           0.0000         CONSTANT HEAD =           0.0000
      CLN CONST HEAD =           0.0000        CLN CONST HEAD =           0.0000
               WELLS =         631.0185                 WELLS =           5.0000

           TOTAL OUT =         631.0185             TOTAL OUT =           5.0000

            IN - OUT =       6.3283E-06              IN - OUT =       6.6069E-08

 PERCENT DISCREPANCY =           0.00     PERCENT DISCREPANCY =           0.00






          TIME SUMMARY AT END OF TIME STEP         4 IN STRESS PERIOD         5
                    SECONDS     MINUTES      HOURS       DAYS        YEARS
                    -----------------------------------------------------------
   TIME STEP LENGTH 1.72542E+05  2875.7      47.928      1.9970     5.46754E-03
 STRESS PERIOD TIME 5.36000E+05  8933.3      148.89      6.2037     1.69848E-02
         TOTAL TIME 1.09040E+07 1.81733E+05  3028.9      126.20     0.34553    
1
 ------------------------------------------------------------------------------------------------------------
 
 SOLVING FOR TRANSPORT 

 ------------------------------------------------------------------------------------------------------------------------
     1 CALLS TO SPARSE MATRIX SOLVER PACKAGE IN TRANSPORT TIME STEP       4 STRESS PERIOD       5 SPECIES  1

 TOTAL OF       1OUTER ITERATIONS
  MAXIMUM CHANGE FOR EACH ITERATION:
   MAX. CHANGE        NODE  MAX. CHANGE        NODE  MAX. CHANGE        NODE  MAX. CHANGE        NODE  MAX. CHANGE        NODE
 ------------------------------------------------------------------------------------------------------------------------------------
  -0.10005E-10,        191

  MAXIMUM CHANGE FOR CLN NODE AT EACH ITERATION:
   MAX. CHANGE    CLN-CELL  MAX. CHANGE    CLN-CELL  MAX. CHANGE    CLN-CELL  MAX. CHANGE    CLN-CELL  MAX. CHANGE    CLN-CELL
 ------------------------------------------------------------------------------------------------------------------------------------
   0.17303E-08,          2
     TRANSPORT SOLUTION COMPLETE FOR COMPONENT SPECIES NUMBER    1
     ------------------------------------------------------------
 UBUDSVU SAVING "    MASS STORAGE" ON UNIT 145 AT TIME STEP      4, STRESS PERIOD      5
 UBUDSVU SAVING "CLN MASS STORAGE" ON UNIT 145 AT TIME STEP      4, STRESS PERIOD      5
 UBUDSVU SAVING "CNST H MASS FLUX" ON UNIT 145 AT TIME STEP      4, STRESS PERIOD      5
 UBUDSVU SAVING "  WELL MASS FLUX" ON UNIT 145 AT TIME STEP      4, STRESS PERIOD      5

 TRANSPORT SOLUTION COMPLETE FOR ALL SPECIES, SORTING OUTPUT FOR CONCENTRATIONS AND MASS BALANCE
 ----------------------------------------------------------------------------------------------------
     TRANSPORT OUTPUT FOR COMPONENT SPECIES NUMBER    1
     ------------------------------------------------------------

 CONC WILL BE SAVED ON UNIT  132 AT END OF TIME STEP        4, STRESS PERIOD        5

 CLN CONC WILL BE SAVED ON UNIT  188 AT END OF TIME STEP   4, STRESS PERIOD    5
1
  VOLUMETRIC BUDGET FOR ENTIRE MODEL AT END OF TIME STEP       4 IN STRESS PERIOD       5
  ---------------------------------------------------------------------------------------

     CUMULATIVE VOLUMES      L**3       RATES FOR THIS TIME STEP      L**3/T
     ------------------                 ------------------------

           IN:                                      IN:
           ---                                      ---
        MASS STORAGE =          63.1019          MASS STORAGE =           0.5000
    CNST H MASS FLUX =           0.0000      CNST H MASS FLUX =           0.0000
      WELL MASS FLUX =           0.0000        WELL MASS FLUX =           0.0000

            TOTAL IN =          63.1019              TOTAL IN =           0.5000

          OUT:                                     OUT:
          ----                                     ----
        MASS STORAGE =           0.2827          MASS STORAGE =       6.8239E-10
    CNST H MASS FLUX =           0.0000      CNST H MASS FLUX =           0.0000
      WELL MASS FLUX =          62.8191        WELL MASS FLUX =           0.5000

           TOTAL OUT =          63.1019             TOTAL OUT =           0.5000

            IN - OUT =      -1.6800E-10              IN - OUT =      -6.8239E-10

 PERCENT DISCREPANCY =          -0.00     PERCENT DISCREPANCY =          -0.00






          TIME SUMMARY AT END OF TIME STEP         4 IN STRESS PERIOD         5
                    SECONDS     MINUTES      HOURS       DAYS        YEARS
                    -----------------------------------------------------------
   TIME STEP LENGTH 1.72542E+05  2875.7      47.928      1.9970     5.46754E-03
 STRESS PERIOD TIME 5.36000E+05  8933.3      148.89      6.2037     1.69848E-02
         TOTAL TIME 1.09040E+07 1.81733E+05  3028.9      126.20     0.34553    
1
 -------------------------------------------------------------------------------------
 
 SOLVING FOR HEAD 

 Outer-Iteration  Inner-Iteration  Backtracking  Number of        Incoming       Outgoing  Maximum HeadChange      Maximum Head Change
     Number           Count           Flag       Backtracks       Residual       Residual           Value              Location
        1                             0             0          0.449179E-01     0.449179E-01
        1                6                                                                       -0.126546                     1           GWF-node number
        1                6                                                                       -0.117580                     1           CLN-node number
        2                             0             0          0.467193E-14     0.467193E-14
        2                1                                                                        0.836322E-07               190           GWF-node number
        2                1                                                                        0.216345E-06                 3           CLN-node number
     2 CALLS TO SPARSE MATRIX SOLVER PACKAGE  IN FLOW TIME STEP       5 STRESS PERIOD       5

 TOTAL OF       2OUTER ITERATIONS
  MAXIMUM CHANGE FOR EACH ITERATION:
   MAX. CHANGE        NODE  MAX. CHANGE        NODE  MAX. CHANGE        NODE  MAX. CHANGE        NODE  MAX. CHANGE        NODE
 ------------------------------------------------------------------------------------------------------------------------------------
  -0.12655    ,          1  0.83632E-07,        190

  MAXIMUM CHANGE FOR CLN NODE AT EACH ITERATION:
   MAX. CHANGE    CLN-CELL  MAX. CHANGE    CLN-CELL  MAX. CHANGE    CLN-CELL  MAX. CHANGE    CLN-CELL  MAX. CHANGE    CLN-CELL
 ------------------------------------------------------------------------------------------------------------------------------------
  -0.11758    ,          1  0.21634E-06,          3

 HEAD/DRAWDOWN PRINTOUT FLAG = 1     TOTAL BUDGET PRINTOUT FLAG = 1
 CELL-BY-CELL FLOW TERM FLAG = 1
 CONCENTRATION PRINTOUT FLAG = 1

 OUTPUT FLAGS FOR ALL LAYERS ARE THE SAME:
   HEAD    DRAWDOWN  HEAD  DRAWDOWN    CONC    CONC
 PRINTOUT  PRINTOUT  SAVE    SAVE    PRINTOUT  SAVE
 ---------------------------------------------------
     0         0       1       1       0       1
 UBUDSVU SAVING "         STORAGE" ON UNIT  50 AT TIME STEP      5, STRESS PERIOD      5
 UBUDSV SAVING "     CLN STORAGE" ON UNIT 144 AT TIME STEP      5, STRESS PERIOD       5
 UBUDSVU SAVING "   CONSTANT HEAD" ON UNIT  50 AT TIME STEP      5, STRESS PERIOD      5
 UBUDSVU SAVING "   FLOW JA FACE " ON UNIT  50 AT TIME STEP      5, STRESS PERIOD      5
 UBUDSVU SAVING "             CLN" ON UNIT  50 AT TIME STEP      5, STRESS PERIOD      5
 UBUDSVU SAVING "  CLN CONST HEAD" ON UNIT 144 AT TIME STEP      5, STRESS PERIOD      5
 UBUDSVU SAVING "   FLOW CLN FACE" ON UNIT 144 AT TIME STEP      5, STRESS PERIOD      5
 UBUDSVU SAVING "             GWF" ON UNIT 144 AT TIME STEP      5, STRESS PERIOD      5
 UBUDSVU SAVING "           WELLS" ON UNIT  50 AT TIME STEP      5, STRESS PERIOD      5
 UBUDSVU SAVING "           WELLS" ON UNIT 144 AT TIME STEP      5, STRESS PERIOD      5

 HEAD WILL BE SAVED ON UNIT       30 AT END OF TIME STEP        5, STRESS PERIOD        5

 DRAWDOWN WILL BE SAVED ON UNIT   31 AT END OF TIME STEP   5, STRESS PERIOD    5

 CLN HEAD WILL BE SAVED ON UNIT   77 AT END OF TIME STEP   5, STRESS PERIOD    5
1
  VOLUMETRIC BUDGET FOR ENTIRE MODEL AT END OF TIME STEP       5 IN STRESS PERIOD       5
  ---------------------------------------------------------------------------------------

     CUMULATIVE VOLUMES      L**3       RATES FOR THIS TIME STEP      L**3/T
     ------------------                 ------------------------

           IN:                                      IN:
           ---                                      ---
             STORAGE =         643.0006               STORAGE =           5.0000
         CLN STORAGE =           0.0000           CLN STORAGE =           0.0000
       CONSTANT HEAD =           0.0000         CONSTANT HEAD =           0.0000
      CLN CONST HEAD =           0.0000        CLN CONST HEAD =           0.0000
               WELLS =           0.0000                 WELLS =           0.0000

            TOTAL IN =         643.0006              TOTAL IN =           5.0000

          OUT:                                     OUT:
          ----                                     ----
             STORAGE =           0.0000               STORAGE =           0.0000
         CLN STORAGE =           0.0000           CLN STORAGE =           0.0000
       CONSTANT HEAD =           0.0000         CONSTANT HEAD =           0.0000
      CLN CONST HEAD =           0.0000        CLN CONST HEAD =           0.0000
               WELLS =         643.0006                 WELLS =           5.0000

           TOTAL OUT =         643.0006             TOTAL OUT =           5.0000

            IN - OUT =       6.3780E-06              IN - OUT =       2.0746E-08

 PERCENT DISCREPANCY =           0.00     PERCENT DISCREPANCY =           0.00






          TIME SUMMARY AT END OF TIME STEP         5 IN STRESS PERIOD         5
                    SECONDS     MINUTES      HOURS       DAYS        YEARS
                    -----------------------------------------------------------
   TIME STEP LENGTH 2.07051E+05  3450.8      57.514      2.3964     6.56105E-03
 STRESS PERIOD TIME 7.43051E+05  12384.      206.40      8.6001     2.35459E-02
         TOTAL TIME 1.11111E+07 1.85184E+05  3086.4      128.60     0.35209    
1
 ------------------------------------------------------------------------------------------------------------
 
 SOLVING FOR TRANSPORT 

 ------------------------------------------------------------------------------------------------------------------------
     1 CALLS TO SPARSE MATRIX SOLVER PACKAGE IN TRANSPORT TIME STEP       5 STRESS PERIOD       5 SPECIES  1

 TOTAL OF       1OUTER ITERATIONS
  MAXIMUM CHANGE FOR EACH ITERATION:
   MAX. CHANGE        NODE  MAX. CHANGE        NODE  MAX. CHANGE        NODE  MAX. CHANGE        NODE  MAX. CHANGE        NODE
 ------------------------------------------------------------------------------------------------------------------------------------
   0.20411E-10,        191

  MAXIMUM CHANGE FOR CLN NODE AT EACH ITERATION:
   MAX. CHANGE    CLN-CELL  MAX. CHANGE    CLN-CELL  MAX. CHANGE    CLN-CELL  MAX. CHANGE    CLN-CELL  MAX. CHANGE    CLN-CELL
 ------------------------------------------------------------------------------------------------------------------------------------
  -0.26855E-08,          2
     TRANSPORT SOLUTION COMPLETE FOR COMPONENT SPECIES NUMBER    1
     ------------------------------------------------------------
 UBUDSVU SAVING "    MASS STORAGE" ON UNIT 145 AT TIME STEP      5, STRESS PERIOD      5
 UBUDSVU SAVING "CLN MASS STORAGE" ON UNIT 145 AT TIME STEP      5, STRESS PERIOD      5
 UBUDSVU SAVING "CNST H MASS FLUX" ON UNIT 145 AT TIME STEP      5, STRESS PERIOD      5
 UBUDSVU SAVING "  WELL MASS FLUX" ON UNIT 145 AT TIME STEP      5, STRESS PERIOD      5

 TRANSPORT SOLUTION COMPLETE FOR ALL SPECIES, SORTING OUTPUT FOR CONCENTRATIONS AND MASS BALANCE
 ----------------------------------------------------------------------------------------------------
     TRANSPORT OUTPUT FOR COMPONENT SPECIES NUMBER    1
     ------------------------------------------------------------

 CONC WILL BE SAVED ON UNIT  132 AT END OF TIME STEP        5, STRESS PERIOD        5

 CLN CONC WILL BE SAVED ON UNIT  188 AT END OF TIME STEP   5, STRESS PERIOD    5
1
  VOLUMETRIC BUDGET FOR ENTIRE MODEL AT END OF TIME STEP       5 IN STRESS PERIOD       5
  ---------------------------------------------------------------------------------------

     CUMULATIVE VOLUMES      L**3       RATES FOR THIS TIME STEP      L**3/T
     ------------------                 ------------------------

           IN:                                      IN:
           ---                                      ---
        MASS STORAGE =          64.3001          MASS STORAGE =           0.5000
    CNST H MASS FLUX =           0.0000      CNST H MASS FLUX =           0.0000
      WELL MASS FLUX =           0.0000        WELL MASS FLUX =           0.0000

            TOTAL IN =          64.3001              TOTAL IN =           0.5000

          OUT:                                     OUT:
          ----                                     ----
        MASS STORAGE =           0.2827          MASS STORAGE =           0.0000
    CNST H MASS FLUX =           0.0000      CNST H MASS FLUX =           0.0000
      WELL MASS FLUX =          64.0173        WELL MASS FLUX =           0.5000

           TOTAL OUT =          64.3001             TOTAL OUT =           0.5000

            IN - OUT =      -1.6340E-10              IN - OUT =           0.0000

 PERCENT DISCREPANCY =          -0.00     PERCENT DISCREPANCY =           0.00






          TIME SUMMARY AT END OF TIME STEP         5 IN STRESS PERIOD         5
                    SECONDS     MINUTES      HOURS       DAYS        YEARS
                    -----------------------------------------------------------
   TIME STEP LENGTH 2.07051E+05  3450.8      57.514      2.3964     6.56105E-03
 STRESS PERIOD TIME 7.43051E+05  12384.      206.40      8.6001     2.35459E-02
         TOTAL TIME 1.11111E+07 1.85184E+05  3086.4      128.60     0.35209    
1
 -------------------------------------------------------------------------------------
 
 SOLVING FOR HEAD 

 Outer-Iteration  Inner-Iteration  Backtracking  Number of        Incoming       Outgoing  Maximum HeadChange      Maximum Head Change
     Number           Count           Flag       Backtracks       Residual       Residual           Value              Location
        1                             0             0          0.448141E-01     0.448141E-01
        1                6                                                                       -0.151480                     1           GWF-node number
        1                6                                                                       -0.140804                     3           CLN-node number
        2                             0             0          0.459990E-14     0.459990E-14
        2                1                                                                        0.255794E-07               190           GWF-node number
        2                1                                                                        0.704203E-07                 3           CLN-node number
     2 CALLS TO SPARSE MATRIX SOLVER PACKAGE  IN FLOW TIME STEP       6 STRESS PERIOD       5

 TOTAL OF       2OUTER ITERATIONS
  MAXIMUM CHANGE FOR EACH ITERATION:
   MAX. CHANGE        NODE  MAX. CHANGE        NODE  MAX. CHANGE        NODE  MAX. CHANGE        NODE  MAX. CHANGE        NODE
 ------------------------------------------------------------------------------------------------------------------------------------
  -0.15148    ,          1  0.25579E-07,        190

  MAXIMUM CHANGE FOR CLN NODE AT EACH ITERATION:
   MAX. CHANGE    CLN-CELL  MAX. CHANGE    CLN-CELL  MAX. CHANGE    CLN-CELL  MAX. CHANGE    CLN-CELL  MAX. CHANGE    CLN-CELL
 ------------------------------------------------------------------------------------------------------------------------------------
  -0.14080    ,          3  0.70420E-07,          3

 HEAD/DRAWDOWN PRINTOUT FLAG = 1     TOTAL BUDGET PRINTOUT FLAG = 1
 CELL-BY-CELL FLOW TERM FLAG = 1
 CONCENTRATION PRINTOUT FLAG = 1

 OUTPUT FLAGS FOR ALL LAYERS ARE THE SAME:
   HEAD    DRAWDOWN  HEAD  DRAWDOWN    CONC    CONC
 PRINTOUT  PRINTOUT  SAVE    SAVE    PRINTOUT  SAVE
 ---------------------------------------------------
     0         0       1       1       0       1
 UBUDSVU SAVING "         STORAGE" ON UNIT  50 AT TIME STEP      6, STRESS PERIOD      5
 UBUDSV SAVING "     CLN STORAGE" ON UNIT 144 AT TIME STEP      6, STRESS PERIOD       5
 UBUDSVU SAVING "   CONSTANT HEAD" ON UNIT  50 AT TIME STEP      6, STRESS PERIOD      5
 UBUDSVU SAVING "   FLOW JA FACE " ON UNIT  50 AT TIME STEP      6, STRESS PERIOD      5
 UBUDSVU SAVING "             CLN" ON UNIT  50 AT TIME STEP      6, STRESS PERIOD      5
 UBUDSVU SAVING "  CLN CONST HEAD" ON UNIT 144 AT TIME STEP      6, STRESS PERIOD      5
 UBUDSVU SAVING "   FLOW CLN FACE" ON UNIT 144 AT TIME STEP      6, STRESS PERIOD      5
 UBUDSVU SAVING "             GWF" ON UNIT 144 AT TIME STEP      6, STRESS PERIOD      5
 UBUDSVU SAVING "           WELLS" ON UNIT  50 AT TIME STEP      6, STRESS PERIOD      5
 UBUDSVU SAVING "           WELLS" ON UNIT 144 AT TIME STEP      6, STRESS PERIOD      5

 HEAD WILL BE SAVED ON UNIT       30 AT END OF TIME STEP        6, STRESS PERIOD        5

 DRAWDOWN WILL BE SAVED ON UNIT   31 AT END OF TIME STEP   6, STRESS PERIOD    5

 CLN HEAD WILL BE SAVED ON UNIT   77 AT END OF TIME STEP   6, STRESS PERIOD    5
1
  VOLUMETRIC BUDGET FOR ENTIRE MODEL AT END OF TIME STEP       6 IN STRESS PERIOD       5
  ---------------------------------------------------------------------------------------

     CUMULATIVE VOLUMES      L**3       RATES FOR THIS TIME STEP      L**3/T
     ------------------                 ------------------------

           IN:                                      IN:
           ---                                      ---
             STORAGE =         657.3792               STORAGE =           5.0000
         CLN STORAGE =           0.0000           CLN STORAGE =           0.0000
       CONSTANT HEAD =           0.0000         CONSTANT HEAD =           0.0000
      CLN CONST HEAD =           0.0000        CLN CONST HEAD =           0.0000
               WELLS =           0.0000                 WELLS =           0.0000

            TOTAL IN =         657.3792              TOTAL IN =           5.0000

          OUT:                                     OUT:
          ----                                     ----
             STORAGE =           0.0000               STORAGE =           0.0000
         CLN STORAGE =           0.0000           CLN STORAGE =           0.0000
       CONSTANT HEAD =           0.0000         CONSTANT HEAD =           0.0000
      CLN CONST HEAD =           0.0000        CLN CONST HEAD =           0.0000
               WELLS =         657.3792                 WELLS =           5.0000

           TOTAL OUT =         657.3792             TOTAL OUT =           5.0000

            IN - OUT =       6.4331E-06              IN - OUT =       1.9149E-08

 PERCENT DISCREPANCY =           0.00     PERCENT DISCREPANCY =           0.00






          TIME SUMMARY AT END OF TIME STEP         6 IN STRESS PERIOD         5
                    SECONDS     MINUTES      HOURS       DAYS        YEARS
                    -----------------------------------------------------------
   TIME STEP LENGTH 2.48461E+05  4141.0      69.017      2.8757     7.87326E-03
 STRESS PERIOD TIME 9.91512E+05  16525.      275.42      11.476     3.14191E-02
         TOTAL TIME 1.13595E+07 1.89325E+05  3155.4      131.48     0.35996    
1
 ------------------------------------------------------------------------------------------------------------
 
 SOLVING FOR TRANSPORT 

 ------------------------------------------------------------------------------------------------------------------------
     1 CALLS TO SPARSE MATRIX SOLVER PACKAGE IN TRANSPORT TIME STEP       6 STRESS PERIOD       5 SPECIES  1

 TOTAL OF       1OUTER ITERATIONS
  MAXIMUM CHANGE FOR EACH ITERATION:
   MAX. CHANGE        NODE  MAX. CHANGE        NODE  MAX. CHANGE        NODE  MAX. CHANGE        NODE  MAX. CHANGE        NODE
 ------------------------------------------------------------------------------------------------------------------------------------
   0.78337E-11,        191

  MAXIMUM CHANGE FOR CLN NODE AT EACH ITERATION:
   MAX. CHANGE    CLN-CELL  MAX. CHANGE    CLN-CELL  MAX. CHANGE    CLN-CELL  MAX. CHANGE    CLN-CELL  MAX. CHANGE    CLN-CELL
 ------------------------------------------------------------------------------------------------------------------------------------
   0.46265E-09,          2
     TRANSPORT SOLUTION COMPLETE FOR COMPONENT SPECIES NUMBER    1
     ------------------------------------------------------------
 UBUDSVU SAVING "    MASS STORAGE" ON UNIT 145 AT TIME STEP      6, STRESS PERIOD      5
 UBUDSVU SAVING "CLN MASS STORAGE" ON UNIT 145 AT TIME STEP      6, STRESS PERIOD      5
 UBUDSVU SAVING "CNST H MASS FLUX" ON UNIT 145 AT TIME STEP      6, STRESS PERIOD      5
 UBUDSVU SAVING "  WELL MASS FLUX" ON UNIT 145 AT TIME STEP      6, STRESS PERIOD      5

 TRANSPORT SOLUTION COMPLETE FOR ALL SPECIES, SORTING OUTPUT FOR CONCENTRATIONS AND MASS BALANCE
 ----------------------------------------------------------------------------------------------------
     TRANSPORT OUTPUT FOR COMPONENT SPECIES NUMBER    1
     ------------------------------------------------------------

 CONC WILL BE SAVED ON UNIT  132 AT END OF TIME STEP        6, STRESS PERIOD        5

 CLN CONC WILL BE SAVED ON UNIT  188 AT END OF TIME STEP   6, STRESS PERIOD    5
1
  VOLUMETRIC BUDGET FOR ENTIRE MODEL AT END OF TIME STEP       6 IN STRESS PERIOD       5
  ---------------------------------------------------------------------------------------

     CUMULATIVE VOLUMES      L**3       RATES FOR THIS TIME STEP      L**3/T
     ------------------                 ------------------------

           IN:                                      IN:
           ---                                      ---
        MASS STORAGE =          65.7379          MASS STORAGE =           0.5000
    CNST H MASS FLUX =           0.0000      CNST H MASS FLUX =           0.0000
      WELL MASS FLUX =           0.0000        WELL MASS FLUX =           0.0000

            TOTAL IN =          65.7379              TOTAL IN =           0.5000

          OUT:                                     OUT:
          ----                                     ----
        MASS STORAGE =           0.2827          MASS STORAGE =       1.6655E-10
    CNST H MASS FLUX =           0.0000      CNST H MASS FLUX =           0.0000
      WELL MASS FLUX =          65.4552        WELL MASS FLUX =           0.5000

           TOTAL OUT =          65.7379             TOTAL OUT =           0.5000

            IN - OUT =      -1.5977E-10              IN - OUT =      -1.6655E-10

 PERCENT DISCREPANCY =          -0.00     PERCENT DISCREPANCY =          -0.00






          TIME SUMMARY AT END OF TIME STEP         6 IN STRESS PERIOD         5
                    SECONDS     MINUTES      HOURS       DAYS        YEARS
                    -----------------------------------------------------------
   TIME STEP LENGTH 2.48461E+05  4141.0      69.017      2.8757     7.87326E-03
 STRESS PERIOD TIME 9.91512E+05  16525.      275.42      11.476     3.14191E-02
         TOTAL TIME 1.13595E+07 1.89325E+05  3155.4      131.48     0.35996    
1
 -------------------------------------------------------------------------------------
 
 SOLVING FOR HEAD 

 Outer-Iteration  Inner-Iteration  Backtracking  Number of        Incoming       Outgoing  Maximum HeadChange      Maximum Head Change
     Number           Count           Flag       Backtracks       Residual       Residual           Value              Location
        1                             0             0          0.446910E-01     0.446910E-01
        1                6                                                                       -0.181254                     1           GWF-node number
        1                6                                                                       -0.168555                     2           CLN-node number
        2                             0             0          0.328604E-13     0.328604E-13
        2                1                                                                        0.649069E-07               401           GWF-node number
        2                1                                                                        0.101854E-06                 2           CLN-node number
     2 CALLS TO SPARSE MATRIX SOLVER PACKAGE  IN FLOW TIME STEP       7 STRESS PERIOD       5

 TOTAL OF       2OUTER ITERATIONS
  MAXIMUM CHANGE FOR EACH ITERATION:
   MAX. CHANGE        NODE  MAX. CHANGE        NODE  MAX. CHANGE        NODE  MAX. CHANGE        NODE  MAX. CHANGE        NODE
 ------------------------------------------------------------------------------------------------------------------------------------
  -0.18125    ,          1  0.64907E-07,        401

  MAXIMUM CHANGE FOR CLN NODE AT EACH ITERATION:
   MAX. CHANGE    CLN-CELL  MAX. CHANGE    CLN-CELL  MAX. CHANGE    CLN-CELL  MAX. CHANGE    CLN-CELL  MAX. CHANGE    CLN-CELL
 ------------------------------------------------------------------------------------------------------------------------------------
  -0.16856    ,          2  0.10185E-06,          2

 HEAD/DRAWDOWN PRINTOUT FLAG = 1     TOTAL BUDGET PRINTOUT FLAG = 1
 CELL-BY-CELL FLOW TERM FLAG = 1
 CONCENTRATION PRINTOUT FLAG = 1

 OUTPUT FLAGS FOR ALL LAYERS ARE THE SAME:
   HEAD    DRAWDOWN  HEAD  DRAWDOWN    CONC    CONC
 PRINTOUT  PRINTOUT  SAVE    SAVE    PRINTOUT  SAVE
 ---------------------------------------------------
     0         0       1       1       0       1
 UBUDSVU SAVING "         STORAGE" ON UNIT  50 AT TIME STEP      7, STRESS PERIOD      5
 UBUDSV SAVING "     CLN STORAGE" ON UNIT 144 AT TIME STEP      7, STRESS PERIOD       5
 UBUDSVU SAVING "   CONSTANT HEAD" ON UNIT  50 AT TIME STEP      7, STRESS PERIOD      5
 UBUDSVU SAVING "   FLOW JA FACE " ON UNIT  50 AT TIME STEP      7, STRESS PERIOD      5
 UBUDSVU SAVING "             CLN" ON UNIT  50 AT TIME STEP      7, STRESS PERIOD      5
 UBUDSVU SAVING "  CLN CONST HEAD" ON UNIT 144 AT TIME STEP      7, STRESS PERIOD      5
 UBUDSVU SAVING "   FLOW CLN FACE" ON UNIT 144 AT TIME STEP      7, STRESS PERIOD      5
 UBUDSVU SAVING "             GWF" ON UNIT 144 AT TIME STEP      7, STRESS PERIOD      5
 UBUDSVU SAVING "           WELLS" ON UNIT  50 AT TIME STEP      7, STRESS PERIOD      5
 UBUDSVU SAVING "           WELLS" ON UNIT 144 AT TIME STEP      7, STRESS PERIOD      5

 HEAD WILL BE SAVED ON UNIT       30 AT END OF TIME STEP        7, STRESS PERIOD        5

 DRAWDOWN WILL BE SAVED ON UNIT   31 AT END OF TIME STEP   7, STRESS PERIOD    5

 CLN HEAD WILL BE SAVED ON UNIT   77 AT END OF TIME STEP   7, STRESS PERIOD    5
1
  VOLUMETRIC BUDGET FOR ENTIRE MODEL AT END OF TIME STEP       7 IN STRESS PERIOD       5
  ---------------------------------------------------------------------------------------

     CUMULATIVE VOLUMES      L**3       RATES FOR THIS TIME STEP      L**3/T
     ------------------                 ------------------------

           IN:                                      IN:
           ---                                      ---
             STORAGE =         674.6334               STORAGE =           5.0000
         CLN STORAGE =           0.0000           CLN STORAGE =           0.0000
       CONSTANT HEAD =           0.0000         CONSTANT HEAD =           0.0000
      CLN CONST HEAD =           0.0000        CLN CONST HEAD =           0.0000
               WELLS =           0.0000                 WELLS =           0.0000

            TOTAL IN =         674.6334              TOTAL IN =           5.0000

          OUT:                                     OUT:
          ----                                     ----
             STORAGE =           0.0000               STORAGE =           0.0000
         CLN STORAGE =           0.0000           CLN STORAGE =           0.0000
       CONSTANT HEAD =           0.0000         CONSTANT HEAD =           0.0000
      CLN CONST HEAD =           0.0000        CLN CONST HEAD =           0.0000
               WELLS =         674.6334                 WELLS =           5.0000

           TOTAL OUT =         674.6334             TOTAL OUT =           5.0000

            IN - OUT =       6.6281E-06              IN - OUT =       5.6526E-08

 PERCENT DISCREPANCY =           0.00     PERCENT DISCREPANCY =           0.00






          TIME SUMMARY AT END OF TIME STEP         7 IN STRESS PERIOD         5
                    SECONDS     MINUTES      HOURS       DAYS        YEARS
                    -----------------------------------------------------------
   TIME STEP LENGTH 2.98153E+05  4969.2      82.820      3.4509     9.44791E-03
 STRESS PERIOD TIME 1.28967E+06  21494.      358.24      14.927     4.08670E-02
         TOTAL TIME 1.16577E+07 1.94294E+05  3238.2      134.93     0.36941    
1
 ------------------------------------------------------------------------------------------------------------
 
 SOLVING FOR TRANSPORT 

 ------------------------------------------------------------------------------------------------------------------------
     1 CALLS TO SPARSE MATRIX SOLVER PACKAGE IN TRANSPORT TIME STEP       7 STRESS PERIOD       5 SPECIES  1

 TOTAL OF       1OUTER ITERATIONS
  MAXIMUM CHANGE FOR EACH ITERATION:
   MAX. CHANGE        NODE  MAX. CHANGE        NODE  MAX. CHANGE        NODE  MAX. CHANGE        NODE  MAX. CHANGE        NODE
 ------------------------------------------------------------------------------------------------------------------------------------
   0.13690E-10,        191

  MAXIMUM CHANGE FOR CLN NODE AT EACH ITERATION:
   MAX. CHANGE    CLN-CELL  MAX. CHANGE    CLN-CELL  MAX. CHANGE    CLN-CELL  MAX. CHANGE    CLN-CELL  MAX. CHANGE    CLN-CELL
 ------------------------------------------------------------------------------------------------------------------------------------
   0.58198E-09,          3
     TRANSPORT SOLUTION COMPLETE FOR COMPONENT SPECIES NUMBER    1
     ------------------------------------------------------------
 UBUDSVU SAVING "    MASS STORAGE" ON UNIT 145 AT TIME STEP      7, STRESS PERIOD      5
 UBUDSVU SAVING "CLN MASS STORAGE" ON UNIT 145 AT TIME STEP      7, STRESS PERIOD      5
 UBUDSVU SAVING "CNST H MASS FLUX" ON UNIT 145 AT TIME STEP      7, STRESS PERIOD      5
 UBUDSVU SAVING "  WELL MASS FLUX" ON UNIT 145 AT TIME STEP      7, STRESS PERIOD      5

 TRANSPORT SOLUTION COMPLETE FOR ALL SPECIES, SORTING OUTPUT FOR CONCENTRATIONS AND MASS BALANCE
 ----------------------------------------------------------------------------------------------------
     TRANSPORT OUTPUT FOR COMPONENT SPECIES NUMBER    1
     ------------------------------------------------------------

 CONC WILL BE SAVED ON UNIT  132 AT END OF TIME STEP        7, STRESS PERIOD        5

 CLN CONC WILL BE SAVED ON UNIT  188 AT END OF TIME STEP   7, STRESS PERIOD    5
1
  VOLUMETRIC BUDGET FOR ENTIRE MODEL AT END OF TIME STEP       7 IN STRESS PERIOD       5
  ---------------------------------------------------------------------------------------

     CUMULATIVE VOLUMES      L**3       RATES FOR THIS TIME STEP      L**3/T
     ------------------                 ------------------------

           IN:                                      IN:
           ---                                      ---
        MASS STORAGE =          67.4633          MASS STORAGE =           0.5000
    CNST H MASS FLUX =           0.0000      CNST H MASS FLUX =           0.0000
      WELL MASS FLUX =           0.0000        WELL MASS FLUX =           0.0000

            TOTAL IN =          67.4633              TOTAL IN =           0.5000

          OUT:                                     OUT:
          ----                                     ----
        MASS STORAGE =           0.2827          MASS STORAGE =       4.3981E-10
    CNST H MASS FLUX =           0.0000      CNST H MASS FLUX =           0.0000
      WELL MASS FLUX =          67.1806        WELL MASS FLUX =           0.5000

           TOTAL OUT =          67.4633             TOTAL OUT =           0.5000

            IN - OUT =      -1.5710E-10              IN - OUT =      -4.3981E-10

 PERCENT DISCREPANCY =          -0.00     PERCENT DISCREPANCY =          -0.00






          TIME SUMMARY AT END OF TIME STEP         7 IN STRESS PERIOD         5
                    SECONDS     MINUTES      HOURS       DAYS        YEARS
                    -----------------------------------------------------------
   TIME STEP LENGTH 2.98153E+05  4969.2      82.820      3.4509     9.44791E-03
 STRESS PERIOD TIME 1.28967E+06  21494.      358.24      14.927     4.08670E-02
         TOTAL TIME 1.16577E+07 1.94294E+05  3238.2      134.93     0.36941    
1
 -------------------------------------------------------------------------------------
 
 SOLVING FOR HEAD 

 Outer-Iteration  Inner-Iteration  Backtracking  Number of        Incoming       Outgoing  Maximum HeadChange      Maximum Head Change
     Number           Count           Flag       Backtracks       Residual       Residual           Value              Location
        1                             0             0          0.445454E-01     0.445454E-01
        1                6                                                                       -0.216778                     1           GWF-node number
        1                6                                                                       -0.201696                     1           CLN-node number
        2                             0             0          0.119028E-13     0.119028E-13
        2                1                                                                        0.196371E-06               401           GWF-node number
        2                1                                                                        0.211242E-07                 3           CLN-node number
     2 CALLS TO SPARSE MATRIX SOLVER PACKAGE  IN FLOW TIME STEP       8 STRESS PERIOD       5

 TOTAL OF       2OUTER ITERATIONS
  MAXIMUM CHANGE FOR EACH ITERATION:
   MAX. CHANGE        NODE  MAX. CHANGE        NODE  MAX. CHANGE        NODE  MAX. CHANGE        NODE  MAX. CHANGE        NODE
 ------------------------------------------------------------------------------------------------------------------------------------
  -0.21678    ,          1  0.19637E-06,        401

  MAXIMUM CHANGE FOR CLN NODE AT EACH ITERATION:
   MAX. CHANGE    CLN-CELL  MAX. CHANGE    CLN-CELL  MAX. CHANGE    CLN-CELL  MAX. CHANGE    CLN-CELL  MAX. CHANGE    CLN-CELL
 ------------------------------------------------------------------------------------------------------------------------------------
  -0.20170    ,          1  0.21124E-07,          3

 HEAD/DRAWDOWN PRINTOUT FLAG = 1     TOTAL BUDGET PRINTOUT FLAG = 1
 CELL-BY-CELL FLOW TERM FLAG = 1
 CONCENTRATION PRINTOUT FLAG = 1

 OUTPUT FLAGS FOR ALL LAYERS ARE THE SAME:
   HEAD    DRAWDOWN  HEAD  DRAWDOWN    CONC    CONC
 PRINTOUT  PRINTOUT  SAVE    SAVE    PRINTOUT  SAVE
 ---------------------------------------------------
     0         0       1       1       0       1
 UBUDSVU SAVING "         STORAGE" ON UNIT  50 AT TIME STEP      8, STRESS PERIOD      5
 UBUDSV SAVING "     CLN STORAGE" ON UNIT 144 AT TIME STEP      8, STRESS PERIOD       5
 UBUDSVU SAVING "   CONSTANT HEAD" ON UNIT  50 AT TIME STEP      8, STRESS PERIOD      5
 UBUDSVU SAVING "   FLOW JA FACE " ON UNIT  50 AT TIME STEP      8, STRESS PERIOD      5
 UBUDSVU SAVING "             CLN" ON UNIT  50 AT TIME STEP      8, STRESS PERIOD      5
 UBUDSVU SAVING "  CLN CONST HEAD" ON UNIT 144 AT TIME STEP      8, STRESS PERIOD      5
 UBUDSVU SAVING "   FLOW CLN FACE" ON UNIT 144 AT TIME STEP      8, STRESS PERIOD      5
 UBUDSVU SAVING "             GWF" ON UNIT 144 AT TIME STEP      8, STRESS PERIOD      5
 UBUDSVU SAVING "           WELLS" ON UNIT  50 AT TIME STEP      8, STRESS PERIOD      5
 UBUDSVU SAVING "           WELLS" ON UNIT 144 AT TIME STEP      8, STRESS PERIOD      5

 HEAD WILL BE SAVED ON UNIT       30 AT END OF TIME STEP        8, STRESS PERIOD        5

 DRAWDOWN WILL BE SAVED ON UNIT   31 AT END OF TIME STEP   8, STRESS PERIOD    5

 CLN HEAD WILL BE SAVED ON UNIT   77 AT END OF TIME STEP   8, STRESS PERIOD    5
1
  VOLUMETRIC BUDGET FOR ENTIRE MODEL AT END OF TIME STEP       8 IN STRESS PERIOD       5
  ---------------------------------------------------------------------------------------

     CUMULATIVE VOLUMES      L**3       RATES FOR THIS TIME STEP      L**3/T
     ------------------                 ------------------------

           IN:                                      IN:
           ---                                      ---
             STORAGE =         695.3385               STORAGE =           5.0000
         CLN STORAGE =           0.0000           CLN STORAGE =           0.0000
       CONSTANT HEAD =           0.0000         CONSTANT HEAD =           0.0000
      CLN CONST HEAD =           0.0000        CLN CONST HEAD =           0.0000
               WELLS =           0.0000                 WELLS =           0.0000

            TOTAL IN =         695.3385              TOTAL IN =           5.0000

          OUT:                                     OUT:
          ----                                     ----
             STORAGE =           0.0000               STORAGE =           0.0000
         CLN STORAGE =           0.0000           CLN STORAGE =           0.0000
       CONSTANT HEAD =           0.0000         CONSTANT HEAD =           0.0000
      CLN CONST HEAD =           0.0000        CLN CONST HEAD =           0.0000
               WELLS =         695.3385                 WELLS =           5.0000

           TOTAL OUT =         695.3385             TOTAL OUT =           5.0000

            IN - OUT =       6.8562E-06              IN - OUT =       5.5082E-08

 PERCENT DISCREPANCY =           0.00     PERCENT DISCREPANCY =           0.00






          TIME SUMMARY AT END OF TIME STEP         8 IN STRESS PERIOD         5
                    SECONDS     MINUTES      HOURS       DAYS        YEARS
                    -----------------------------------------------------------
   TIME STEP LENGTH 3.57784E+05  5963.1      99.384      4.1410     1.13375E-02
 STRESS PERIOD TIME 1.64745E+06  27457.      457.62      19.068     5.22045E-02
         TOTAL TIME 1.20154E+07 2.00257E+05  3337.6      139.07     0.38075    
1
 ------------------------------------------------------------------------------------------------------------
 
 SOLVING FOR TRANSPORT 

 ------------------------------------------------------------------------------------------------------------------------
     1 CALLS TO SPARSE MATRIX SOLVER PACKAGE IN TRANSPORT TIME STEP       8 STRESS PERIOD       5 SPECIES  1

 TOTAL OF       1OUTER ITERATIONS
  MAXIMUM CHANGE FOR EACH ITERATION:
   MAX. CHANGE        NODE  MAX. CHANGE        NODE  MAX. CHANGE        NODE  MAX. CHANGE        NODE  MAX. CHANGE        NODE
 ------------------------------------------------------------------------------------------------------------------------------------
   0.22189E-11,         47

  MAXIMUM CHANGE FOR CLN NODE AT EACH ITERATION:
   MAX. CHANGE    CLN-CELL  MAX. CHANGE    CLN-CELL  MAX. CHANGE    CLN-CELL  MAX. CHANGE    CLN-CELL  MAX. CHANGE    CLN-CELL
 ------------------------------------------------------------------------------------------------------------------------------------
   0.14490E-08,          2
     TRANSPORT SOLUTION COMPLETE FOR COMPONENT SPECIES NUMBER    1
     ------------------------------------------------------------
 UBUDSVU SAVING "    MASS STORAGE" ON UNIT 145 AT TIME STEP      8, STRESS PERIOD      5
 UBUDSVU SAVING "CLN MASS STORAGE" ON UNIT 145 AT TIME STEP      8, STRESS PERIOD      5
 UBUDSVU SAVING "CNST H MASS FLUX" ON UNIT 145 AT TIME STEP      8, STRESS PERIOD      5
 UBUDSVU SAVING "  WELL MASS FLUX" ON UNIT 145 AT TIME STEP      8, STRESS PERIOD      5

 TRANSPORT SOLUTION COMPLETE FOR ALL SPECIES, SORTING OUTPUT FOR CONCENTRATIONS AND MASS BALANCE
 ----------------------------------------------------------------------------------------------------
     TRANSPORT OUTPUT FOR COMPONENT SPECIES NUMBER    1
     ------------------------------------------------------------

 CONC WILL BE SAVED ON UNIT  132 AT END OF TIME STEP        8, STRESS PERIOD        5

 CLN CONC WILL BE SAVED ON UNIT  188 AT END OF TIME STEP   8, STRESS PERIOD    5
1
  VOLUMETRIC BUDGET FOR ENTIRE MODEL AT END OF TIME STEP       8 IN STRESS PERIOD       5
  ---------------------------------------------------------------------------------------

     CUMULATIVE VOLUMES      L**3       RATES FOR THIS TIME STEP      L**3/T
     ------------------                 ------------------------

           IN:                                      IN:
           ---                                      ---
        MASS STORAGE =          69.5339          MASS STORAGE =           0.5000
    CNST H MASS FLUX =           0.0000      CNST H MASS FLUX =           0.0000
      WELL MASS FLUX =           0.0000        WELL MASS FLUX =           0.0000

            TOTAL IN =          69.5339              TOTAL IN =           0.5000

          OUT:                                     OUT:
          ----                                     ----
        MASS STORAGE =           0.2827          MASS STORAGE =       3.4833E-10
    CNST H MASS FLUX =           0.0000      CNST H MASS FLUX =           0.0000
      WELL MASS FLUX =          69.2511        WELL MASS FLUX =           0.5000

           TOTAL OUT =          69.5339             TOTAL OUT =           0.5000

            IN - OUT =      -1.5568E-10              IN - OUT =      -3.4833E-10

 PERCENT DISCREPANCY =          -0.00     PERCENT DISCREPANCY =          -0.00






          TIME SUMMARY AT END OF TIME STEP         8 IN STRESS PERIOD         5
                    SECONDS     MINUTES      HOURS       DAYS        YEARS
                    -----------------------------------------------------------
   TIME STEP LENGTH 3.57784E+05  5963.1      99.384      4.1410     1.13375E-02
 STRESS PERIOD TIME 1.64745E+06  27457.      457.62      19.068     5.22045E-02
         TOTAL TIME 1.20154E+07 2.00257E+05  3337.6      139.07     0.38075    
1
 -------------------------------------------------------------------------------------
 
 SOLVING FOR HEAD 

 Outer-Iteration  Inner-Iteration  Backtracking  Number of        Incoming       Outgoing  Maximum HeadChange      Maximum Head Change
     Number           Count           Flag       Backtracks       Residual       Residual           Value              Location
        1                             0             0          0.443736E-01     0.443736E-01
        1                6                                                                       -0.259130                     1           GWF-node number
        1                6                                                                       -0.241240                     1           CLN-node number
        2                             0             0          0.754399E-13     0.754399E-13
        2                1                                                                        0.504711E-06               401           GWF-node number
        2                1                                                                        0.414222E-06                 3           CLN-node number
     2 CALLS TO SPARSE MATRIX SOLVER PACKAGE  IN FLOW TIME STEP       9 STRESS PERIOD       5

 TOTAL OF       2OUTER ITERATIONS
  MAXIMUM CHANGE FOR EACH ITERATION:
   MAX. CHANGE        NODE  MAX. CHANGE        NODE  MAX. CHANGE        NODE  MAX. CHANGE        NODE  MAX. CHANGE        NODE
 ------------------------------------------------------------------------------------------------------------------------------------
  -0.25913    ,          1  0.50471E-06,        401

  MAXIMUM CHANGE FOR CLN NODE AT EACH ITERATION:
   MAX. CHANGE    CLN-CELL  MAX. CHANGE    CLN-CELL  MAX. CHANGE    CLN-CELL  MAX. CHANGE    CLN-CELL  MAX. CHANGE    CLN-CELL
 ------------------------------------------------------------------------------------------------------------------------------------
  -0.24124    ,          1  0.41422E-06,          3

 HEAD/DRAWDOWN PRINTOUT FLAG = 1     TOTAL BUDGET PRINTOUT FLAG = 1
 CELL-BY-CELL FLOW TERM FLAG = 1
 CONCENTRATION PRINTOUT FLAG = 1

 OUTPUT FLAGS FOR ALL LAYERS ARE THE SAME:
   HEAD    DRAWDOWN  HEAD  DRAWDOWN    CONC    CONC
 PRINTOUT  PRINTOUT  SAVE    SAVE    PRINTOUT  SAVE
 ---------------------------------------------------
     0         0       1       1       0       1
 UBUDSVU SAVING "         STORAGE" ON UNIT  50 AT TIME STEP      9, STRESS PERIOD      5
 UBUDSV SAVING "     CLN STORAGE" ON UNIT 144 AT TIME STEP      9, STRESS PERIOD       5
 UBUDSVU SAVING "   CONSTANT HEAD" ON UNIT  50 AT TIME STEP      9, STRESS PERIOD      5
 UBUDSVU SAVING "   FLOW JA FACE " ON UNIT  50 AT TIME STEP      9, STRESS PERIOD      5
 UBUDSVU SAVING "             CLN" ON UNIT  50 AT TIME STEP      9, STRESS PERIOD      5
 UBUDSVU SAVING "  CLN CONST HEAD" ON UNIT 144 AT TIME STEP      9, STRESS PERIOD      5
 UBUDSVU SAVING "   FLOW CLN FACE" ON UNIT 144 AT TIME STEP      9, STRESS PERIOD      5
 UBUDSVU SAVING "             GWF" ON UNIT 144 AT TIME STEP      9, STRESS PERIOD      5
 UBUDSVU SAVING "           WELLS" ON UNIT  50 AT TIME STEP      9, STRESS PERIOD      5
 UBUDSVU SAVING "           WELLS" ON UNIT 144 AT TIME STEP      9, STRESS PERIOD      5

 HEAD WILL BE SAVED ON UNIT       30 AT END OF TIME STEP        9, STRESS PERIOD        5

 DRAWDOWN WILL BE SAVED ON UNIT   31 AT END OF TIME STEP   9, STRESS PERIOD    5

 CLN HEAD WILL BE SAVED ON UNIT   77 AT END OF TIME STEP   9, STRESS PERIOD    5
1
  VOLUMETRIC BUDGET FOR ENTIRE MODEL AT END OF TIME STEP       9 IN STRESS PERIOD       5
  ---------------------------------------------------------------------------------------

     CUMULATIVE VOLUMES      L**3       RATES FOR THIS TIME STEP      L**3/T
     ------------------                 ------------------------

           IN:                                      IN:
           ---                                      ---
             STORAGE =         720.1846               STORAGE =           5.0000
         CLN STORAGE =           0.0000           CLN STORAGE =           0.0000
       CONSTANT HEAD =           0.0000         CONSTANT HEAD =           0.0000
      CLN CONST HEAD =           0.0000        CLN CONST HEAD =           0.0000
               WELLS =           0.0000                 WELLS =           0.0000

            TOTAL IN =         720.1846              TOTAL IN =           5.0000

          OUT:                                     OUT:
          ----                                     ----
             STORAGE =           0.0000               STORAGE =           0.0000
         CLN STORAGE =           0.0000           CLN STORAGE =           0.0000
       CONSTANT HEAD =           0.0000         CONSTANT HEAD =           0.0000
      CLN CONST HEAD =           0.0000        CLN CONST HEAD =           0.0000
               WELLS =         720.1846                 WELLS =           5.0000

           TOTAL OUT =         720.1846             TOTAL OUT =           5.0000

            IN - OUT =       7.3304E-06              IN - OUT =       9.5430E-08

 PERCENT DISCREPANCY =           0.00     PERCENT DISCREPANCY =           0.00






          TIME SUMMARY AT END OF TIME STEP         9 IN STRESS PERIOD         5
                    SECONDS     MINUTES      HOURS       DAYS        YEARS
                    -----------------------------------------------------------
   TIME STEP LENGTH 4.29341E+05  7155.7      119.26      4.9692     1.36050E-02
 STRESS PERIOD TIME 2.07679E+06  34613.      576.89      24.037     6.58095E-02
         TOTAL TIME 1.24448E+07 2.07413E+05  3456.9      144.04     0.39435    
1
 ------------------------------------------------------------------------------------------------------------
 
 SOLVING FOR TRANSPORT 

 ------------------------------------------------------------------------------------------------------------------------
     1 CALLS TO SPARSE MATRIX SOLVER PACKAGE IN TRANSPORT TIME STEP       9 STRESS PERIOD       5 SPECIES  1

 TOTAL OF       1OUTER ITERATIONS
  MAXIMUM CHANGE FOR EACH ITERATION:
   MAX. CHANGE        NODE  MAX. CHANGE        NODE  MAX. CHANGE        NODE  MAX. CHANGE        NODE  MAX. CHANGE        NODE
 ------------------------------------------------------------------------------------------------------------------------------------
   0.81966E-10,        191

  MAXIMUM CHANGE FOR CLN NODE AT EACH ITERATION:
   MAX. CHANGE    CLN-CELL  MAX. CHANGE    CLN-CELL  MAX. CHANGE    CLN-CELL  MAX. CHANGE    CLN-CELL  MAX. CHANGE    CLN-CELL
 ------------------------------------------------------------------------------------------------------------------------------------
  -0.11116E-08,          2
     TRANSPORT SOLUTION COMPLETE FOR COMPONENT SPECIES NUMBER    1
     ------------------------------------------------------------
 UBUDSVU SAVING "    MASS STORAGE" ON UNIT 145 AT TIME STEP      9, STRESS PERIOD      5
 UBUDSVU SAVING "CLN MASS STORAGE" ON UNIT 145 AT TIME STEP      9, STRESS PERIOD      5
 UBUDSVU SAVING "CNST H MASS FLUX" ON UNIT 145 AT TIME STEP      9, STRESS PERIOD      5
 UBUDSVU SAVING "  WELL MASS FLUX" ON UNIT 145 AT TIME STEP      9, STRESS PERIOD      5

 TRANSPORT SOLUTION COMPLETE FOR ALL SPECIES, SORTING OUTPUT FOR CONCENTRATIONS AND MASS BALANCE
 ----------------------------------------------------------------------------------------------------
     TRANSPORT OUTPUT FOR COMPONENT SPECIES NUMBER    1
     ------------------------------------------------------------

 CONC WILL BE SAVED ON UNIT  132 AT END OF TIME STEP        9, STRESS PERIOD        5

 CLN CONC WILL BE SAVED ON UNIT  188 AT END OF TIME STEP   9, STRESS PERIOD    5
1
  VOLUMETRIC BUDGET FOR ENTIRE MODEL AT END OF TIME STEP       9 IN STRESS PERIOD       5
  ---------------------------------------------------------------------------------------

     CUMULATIVE VOLUMES      L**3       RATES FOR THIS TIME STEP      L**3/T
     ------------------                 ------------------------

           IN:                                      IN:
           ---                                      ---
        MASS STORAGE =          72.0185          MASS STORAGE =           0.5000
    CNST H MASS FLUX =           0.0000      CNST H MASS FLUX =           0.0000
      WELL MASS FLUX =           0.0000        WELL MASS FLUX =           0.0000

            TOTAL IN =          72.0185              TOTAL IN =           0.5000

          OUT:                                     OUT:
          ----                                     ----
        MASS STORAGE =           0.2827          MASS STORAGE =           0.0000
    CNST H MASS FLUX =           0.0000      CNST H MASS FLUX =           0.0000
      WELL MASS FLUX =          71.7357        WELL MASS FLUX =           0.5000

           TOTAL OUT =          72.0185             TOTAL OUT =           0.5000

            IN - OUT =      -5.9387E-11              IN - OUT =           0.0000

 PERCENT DISCREPANCY =          -0.00     PERCENT DISCREPANCY =           0.00






          TIME SUMMARY AT END OF TIME STEP         9 IN STRESS PERIOD         5
                    SECONDS     MINUTES      HOURS       DAYS        YEARS
                    -----------------------------------------------------------
   TIME STEP LENGTH 4.29341E+05  7155.7      119.26      4.9692     1.36050E-02
 STRESS PERIOD TIME 2.07679E+06  34613.      576.89      24.037     6.58095E-02
         TOTAL TIME 1.24448E+07 2.07413E+05  3456.9      144.04     0.39435    
1
 -------------------------------------------------------------------------------------
 
 SOLVING FOR HEAD 

 Outer-Iteration  Inner-Iteration  Backtracking  Number of        Incoming       Outgoing  Maximum HeadChange      Maximum Head Change
     Number           Count           Flag       Backtracks       Residual       Residual           Value              Location
        1                             0             0          0.441713E-01     0.441713E-01
        1                7                                                                       -0.309577                     1           GWF-node number
        1                7                                                                       -0.288385                     1           CLN-node number
        2                             0             0          0.282440E-14     0.282440E-14
        2                1                                                                       -0.669017E-07               417           GWF-node number
        2                1                                                                        0.172397E-07                 3           CLN-node number
     2 CALLS TO SPARSE MATRIX SOLVER PACKAGE  IN FLOW TIME STEP      10 STRESS PERIOD       5

 TOTAL OF       2OUTER ITERATIONS
  MAXIMUM CHANGE FOR EACH ITERATION:
   MAX. CHANGE        NODE  MAX. CHANGE        NODE  MAX. CHANGE        NODE  MAX. CHANGE        NODE  MAX. CHANGE        NODE
 ------------------------------------------------------------------------------------------------------------------------------------
  -0.30958    ,          1 -0.66902E-07,        417

  MAXIMUM CHANGE FOR CLN NODE AT EACH ITERATION:
   MAX. CHANGE    CLN-CELL  MAX. CHANGE    CLN-CELL  MAX. CHANGE    CLN-CELL  MAX. CHANGE    CLN-CELL  MAX. CHANGE    CLN-CELL
 ------------------------------------------------------------------------------------------------------------------------------------
  -0.28839    ,          1  0.17240E-07,          3

 HEAD/DRAWDOWN PRINTOUT FLAG = 1     TOTAL BUDGET PRINTOUT FLAG = 1
 CELL-BY-CELL FLOW TERM FLAG = 1
 CONCENTRATION PRINTOUT FLAG = 1

 OUTPUT FLAGS FOR ALL LAYERS ARE THE SAME:
   HEAD    DRAWDOWN  HEAD  DRAWDOWN    CONC    CONC
 PRINTOUT  PRINTOUT  SAVE    SAVE    PRINTOUT  SAVE
 ---------------------------------------------------
     0         0       1       1       0       1
 UBUDSVU SAVING "         STORAGE" ON UNIT  50 AT TIME STEP     10, STRESS PERIOD      5
 UBUDSV SAVING "     CLN STORAGE" ON UNIT 144 AT TIME STEP     10, STRESS PERIOD       5
 UBUDSVU SAVING "   CONSTANT HEAD" ON UNIT  50 AT TIME STEP     10, STRESS PERIOD      5
 UBUDSVU SAVING "   FLOW JA FACE " ON UNIT  50 AT TIME STEP     10, STRESS PERIOD      5
 UBUDSVU SAVING "             CLN" ON UNIT  50 AT TIME STEP     10, STRESS PERIOD      5
 UBUDSVU SAVING "  CLN CONST HEAD" ON UNIT 144 AT TIME STEP     10, STRESS PERIOD      5
 UBUDSVU SAVING "   FLOW CLN FACE" ON UNIT 144 AT TIME STEP     10, STRESS PERIOD      5
 UBUDSVU SAVING "             GWF" ON UNIT 144 AT TIME STEP     10, STRESS PERIOD      5
 UBUDSVU SAVING "           WELLS" ON UNIT  50 AT TIME STEP     10, STRESS PERIOD      5
 UBUDSVU SAVING "           WELLS" ON UNIT 144 AT TIME STEP     10, STRESS PERIOD      5

 HEAD WILL BE SAVED ON UNIT       30 AT END OF TIME STEP       10, STRESS PERIOD        5

 DRAWDOWN WILL BE SAVED ON UNIT   31 AT END OF TIME STEP  10, STRESS PERIOD    5

 CLN HEAD WILL BE SAVED ON UNIT   77 AT END OF TIME STEP  10, STRESS PERIOD    5
1
  VOLUMETRIC BUDGET FOR ENTIRE MODEL AT END OF TIME STEP      10 IN STRESS PERIOD       5
  ---------------------------------------------------------------------------------------

     CUMULATIVE VOLUMES      L**3       RATES FOR THIS TIME STEP      L**3/T
     ------------------                 ------------------------

           IN:                                      IN:
           ---                                      ---
             STORAGE =         750.0000               STORAGE =           5.0000
         CLN STORAGE =           0.0000           CLN STORAGE =           0.0000
       CONSTANT HEAD =           0.0000         CONSTANT HEAD =           0.0000
      CLN CONST HEAD =           0.0000        CLN CONST HEAD =           0.0000
               WELLS =           0.0000                 WELLS =           0.0000

            TOTAL IN =         750.0000              TOTAL IN =           5.0000

          OUT:                                     OUT:
          ----                                     ----
             STORAGE =           0.0000               STORAGE =           0.0000
         CLN STORAGE =           0.0000           CLN STORAGE =           0.0000
       CONSTANT HEAD =           0.0000         CONSTANT HEAD =           0.0000
      CLN CONST HEAD =           0.0000        CLN CONST HEAD =           0.0000
               WELLS =         750.0000                 WELLS =           5.0000

           TOTAL OUT =         750.0000             TOTAL OUT =           5.0000

            IN - OUT =       7.7072E-06              IN - OUT =       6.3181E-08

 PERCENT DISCREPANCY =           0.00     PERCENT DISCREPANCY =           0.00






          TIME SUMMARY AT END OF TIME STEP        10 IN STRESS PERIOD         5
                    SECONDS     MINUTES      HOURS       DAYS        YEARS
                    -----------------------------------------------------------
   TIME STEP LENGTH 5.15209E+05  8586.8      143.11      5.9631     1.63260E-02
 STRESS PERIOD TIME 2.59200E+06  43200.      720.00      30.000     8.21355E-02
         TOTAL TIME 1.29600E+07 2.16000E+05  3600.0      150.00     0.41068    
1
 ------------------------------------------------------------------------------------------------------------
 
 SOLVING FOR TRANSPORT 

 ------------------------------------------------------------------------------------------------------------------------
     1 CALLS TO SPARSE MATRIX SOLVER PACKAGE IN TRANSPORT TIME STEP      10 STRESS PERIOD       5 SPECIES  1

 TOTAL OF       1OUTER ITERATIONS
  MAXIMUM CHANGE FOR EACH ITERATION:
   MAX. CHANGE        NODE  MAX. CHANGE        NODE  MAX. CHANGE        NODE  MAX. CHANGE        NODE  MAX. CHANGE        NODE
 ------------------------------------------------------------------------------------------------------------------------------------
   0.64975E-11,        190

  MAXIMUM CHANGE FOR CLN NODE AT EACH ITERATION:
   MAX. CHANGE    CLN-CELL  MAX. CHANGE    CLN-CELL  MAX. CHANGE    CLN-CELL  MAX. CHANGE    CLN-CELL  MAX. CHANGE    CLN-CELL
 ------------------------------------------------------------------------------------------------------------------------------------
   0.95373E-09,          1
     TRANSPORT SOLUTION COMPLETE FOR COMPONENT SPECIES NUMBER    1
     ------------------------------------------------------------
 UBUDSVU SAVING "    MASS STORAGE" ON UNIT 145 AT TIME STEP     10, STRESS PERIOD      5
 UBUDSVU SAVING "CLN MASS STORAGE" ON UNIT 145 AT TIME STEP     10, STRESS PERIOD      5
 UBUDSVU SAVING "CNST H MASS FLUX" ON UNIT 145 AT TIME STEP     10, STRESS PERIOD      5
 UBUDSVU SAVING "  WELL MASS FLUX" ON UNIT 145 AT TIME STEP     10, STRESS PERIOD      5

 TRANSPORT SOLUTION COMPLETE FOR ALL SPECIES, SORTING OUTPUT FOR CONCENTRATIONS AND MASS BALANCE
 ----------------------------------------------------------------------------------------------------
     TRANSPORT OUTPUT FOR COMPONENT SPECIES NUMBER    1
     ------------------------------------------------------------

 CONC WILL BE SAVED ON UNIT  132 AT END OF TIME STEP       10, STRESS PERIOD        5

 CLN CONC WILL BE SAVED ON UNIT  188 AT END OF TIME STEP  10, STRESS PERIOD    5
1
  VOLUMETRIC BUDGET FOR ENTIRE MODEL AT END OF TIME STEP      10 IN STRESS PERIOD       5
  ---------------------------------------------------------------------------------------

     CUMULATIVE VOLUMES      L**3       RATES FOR THIS TIME STEP      L**3/T
     ------------------                 ------------------------

           IN:                                      IN:
           ---                                      ---
        MASS STORAGE =          75.0000          MASS STORAGE =           0.5000
    CNST H MASS FLUX =           0.0000      CNST H MASS FLUX =           0.0000
      WELL MASS FLUX =           0.0000        WELL MASS FLUX =           0.0000

            TOTAL IN =          75.0000              TOTAL IN =           0.5000

          OUT:                                     OUT:
          ----                                     ----
        MASS STORAGE =           0.2827          MASS STORAGE =       3.2472E-10
    CNST H MASS FLUX =           0.0000      CNST H MASS FLUX =           0.0000
      WELL MASS FLUX =          74.7173        WELL MASS FLUX =           0.5000

           TOTAL OUT =          75.0000             TOTAL OUT =           0.5000

            IN - OUT =      -5.8549E-11              IN - OUT =      -3.2472E-10

 PERCENT DISCREPANCY =          -0.00     PERCENT DISCREPANCY =          -0.00






          TIME SUMMARY AT END OF TIME STEP        10 IN STRESS PERIOD         5
                    SECONDS     MINUTES      HOURS       DAYS        YEARS
                    -----------------------------------------------------------
   TIME STEP LENGTH 5.15209E+05  8586.8      143.11      5.9631     1.63260E-02
 STRESS PERIOD TIME 2.59200E+06  43200.      720.00      30.000     8.21355E-02
         TOTAL TIME 1.29600E+07 2.16000E+05  3600.0      150.00     0.41068    
1
1
                            STRESS PERIOD NO.    6, LENGTH =   30.00000    
                            -----------------------------------------------

                              NUMBER OF TIME STEPS =        10

                               MULTIPLIER FOR DELT =     1.200

                            INITIAL TIME STEP SIZE =   1.155682    

 WEL -- WELL PACKAGE, VERSION 7, 5/2/2005 INPUT READ FROM UNIT   12

 WELL NO.  CLN-NODE       STRESS FACTOR         C01             
 ---------------------------------------------------------------
        1            3      -5.000           0.000           0.000    

      1 WELL 
 -------------------------------------------------------------------------------------
 
 SOLVING FOR HEAD 

 Outer-Iteration  Inner-Iteration  Backtracking  Number of        Incoming       Outgoing  Maximum HeadChange      Maximum Head Change
     Number           Count           Flag       Backtracks       Residual       Residual           Value              Location
        1                             0             0          0.439338E-01     0.439338E-01
        1                5                                                                       -0.599466E-01                 1           GWF-node number
        1                5                                                                       -0.558498E-01                 1           CLN-node number
        2                             0             0          0.326585E-14     0.326585E-14
        2                1                                                                       -0.546489E-07               190           GWF-node number
        2                1                                                                       -0.151191E-06                 3           CLN-node number


     2 CALLS TO SPARSE MATRIX SOLVER PACKAGE  IN FLOW TIME STEP       1 STRESS PERIOD       6

 TOTAL OF       2OUTER ITERATIONS
  MAXIMUM CHANGE FOR EACH ITERATION:
   MAX. CHANGE        NODE  MAX. CHANGE        NODE  MAX. CHANGE        NODE  MAX. CHANGE        NODE  MAX. CHANGE        NODE
 ------------------------------------------------------------------------------------------------------------------------------------
  -0.59947E-01,          1 -0.54649E-07,        190

  MAXIMUM CHANGE FOR CLN NODE AT EACH ITERATION:
   MAX. CHANGE    CLN-CELL  MAX. CHANGE    CLN-CELL  MAX. CHANGE    CLN-CELL  MAX. CHANGE    CLN-CELL  MAX. CHANGE    CLN-CELL
 ------------------------------------------------------------------------------------------------------------------------------------
  -0.55850E-01,          1 -0.15119E-06,          3

 HEAD/DRAWDOWN PRINTOUT FLAG = 1     TOTAL BUDGET PRINTOUT FLAG = 1
 CELL-BY-CELL FLOW TERM FLAG = 1
 CONCENTRATION PRINTOUT FLAG = 1

 OUTPUT FLAGS FOR ALL LAYERS ARE THE SAME:
   HEAD    DRAWDOWN  HEAD  DRAWDOWN    CONC    CONC
 PRINTOUT  PRINTOUT  SAVE    SAVE    PRINTOUT  SAVE
 ---------------------------------------------------
     0         0       1       1       0       1
 UBUDSVU SAVING "         STORAGE" ON UNIT  50 AT TIME STEP      1, STRESS PERIOD      6
 UBUDSV SAVING "     CLN STORAGE" ON UNIT 144 AT TIME STEP      1, STRESS PERIOD       6
 UBUDSVU SAVING "   CONSTANT HEAD" ON UNIT  50 AT TIME STEP      1, STRESS PERIOD      6
 UBUDSVU SAVING "   FLOW JA FACE " ON UNIT  50 AT TIME STEP      1, STRESS PERIOD      6
 UBUDSVU SAVING "             CLN" ON UNIT  50 AT TIME STEP      1, STRESS PERIOD      6
 UBUDSVU SAVING "  CLN CONST HEAD" ON UNIT 144 AT TIME STEP      1, STRESS PERIOD      6
 UBUDSVU SAVING "   FLOW CLN FACE" ON UNIT 144 AT TIME STEP      1, STRESS PERIOD      6
 UBUDSVU SAVING "             GWF" ON UNIT 144 AT TIME STEP      1, STRESS PERIOD      6
 UBUDSVU SAVING "           WELLS" ON UNIT  50 AT TIME STEP      1, STRESS PERIOD      6
 UBUDSVU SAVING "           WELLS" ON UNIT 144 AT TIME STEP      1, STRESS PERIOD      6

 HEAD WILL BE SAVED ON UNIT       30 AT END OF TIME STEP        1, STRESS PERIOD        6

 DRAWDOWN WILL BE SAVED ON UNIT   31 AT END OF TIME STEP   1, STRESS PERIOD    6

 CLN HEAD WILL BE SAVED ON UNIT   77 AT END OF TIME STEP   1, STRESS PERIOD    6
1
  VOLUMETRIC BUDGET FOR ENTIRE MODEL AT END OF TIME STEP       1 IN STRESS PERIOD       6
  ---------------------------------------------------------------------------------------

     CUMULATIVE VOLUMES      L**3       RATES FOR THIS TIME STEP      L**3/T
     ------------------                 ------------------------

           IN:                                      IN:
           ---                                      ---
             STORAGE =         755.7784               STORAGE =           5.0000
         CLN STORAGE =           0.0000           CLN STORAGE =           0.0000
       CONSTANT HEAD =           0.0000         CONSTANT HEAD =           0.0000
      CLN CONST HEAD =           0.0000        CLN CONST HEAD =           0.0000
               WELLS =           0.0000                 WELLS =           0.0000

            TOTAL IN =         755.7784              TOTAL IN =           5.0000

          OUT:                                     OUT:
          ----                                     ----
             STORAGE =           0.0000               STORAGE =           0.0000
         CLN STORAGE =           0.0000           CLN STORAGE =           0.0000
       CONSTANT HEAD =           0.0000         CONSTANT HEAD =           0.0000
      CLN CONST HEAD =           0.0000        CLN CONST HEAD =           0.0000
               WELLS =         755.7784                 WELLS =           5.0000

           TOTAL OUT =         755.7784             TOTAL OUT =           5.0000

            IN - OUT =       7.8275E-06              IN - OUT =       1.0413E-07

 PERCENT DISCREPANCY =           0.00     PERCENT DISCREPANCY =           0.00






          TIME SUMMARY AT END OF TIME STEP         1 IN STRESS PERIOD         6
                    SECONDS     MINUTES      HOURS       DAYS        YEARS
                    -----------------------------------------------------------
   TIME STEP LENGTH  99851.      1664.2      27.736      1.1557     3.16409E-03
 STRESS PERIOD TIME  99851.      1664.2      27.736      1.1557     3.16409E-03
         TOTAL TIME 1.30598E+07 2.17664E+05  3627.7      151.16     0.41384    
1
 ------------------------------------------------------------------------------------------------------------
 
 SOLVING FOR TRANSPORT 

 ------------------------------------------------------------------------------------------------------------------------
     1 CALLS TO SPARSE MATRIX SOLVER PACKAGE IN TRANSPORT TIME STEP       1 STRESS PERIOD       6 SPECIES  1

 TOTAL OF       1OUTER ITERATIONS
  MAXIMUM CHANGE FOR EACH ITERATION:
   MAX. CHANGE        NODE  MAX. CHANGE        NODE  MAX. CHANGE        NODE  MAX. CHANGE        NODE  MAX. CHANGE        NODE
 ------------------------------------------------------------------------------------------------------------------------------------
  -0.69328E-11,        191

  MAXIMUM CHANGE FOR CLN NODE AT EACH ITERATION:
   MAX. CHANGE    CLN-CELL  MAX. CHANGE    CLN-CELL  MAX. CHANGE    CLN-CELL  MAX. CHANGE    CLN-CELL  MAX. CHANGE    CLN-CELL
 ------------------------------------------------------------------------------------------------------------------------------------
   0.13748E-08,          2
     TRANSPORT SOLUTION COMPLETE FOR COMPONENT SPECIES NUMBER    1
     ------------------------------------------------------------
 UBUDSVU SAVING "    MASS STORAGE" ON UNIT 145 AT TIME STEP      1, STRESS PERIOD      6
 UBUDSVU SAVING "CLN MASS STORAGE" ON UNIT 145 AT TIME STEP      1, STRESS PERIOD      6
 UBUDSVU SAVING "CNST H MASS FLUX" ON UNIT 145 AT TIME STEP      1, STRESS PERIOD      6
 UBUDSVU SAVING "  WELL MASS FLUX" ON UNIT 145 AT TIME STEP      1, STRESS PERIOD      6

 TRANSPORT SOLUTION COMPLETE FOR ALL SPECIES, SORTING OUTPUT FOR CONCENTRATIONS AND MASS BALANCE
 ----------------------------------------------------------------------------------------------------
     TRANSPORT OUTPUT FOR COMPONENT SPECIES NUMBER    1
     ------------------------------------------------------------

 CONC WILL BE SAVED ON UNIT  132 AT END OF TIME STEP        1, STRESS PERIOD        6

 CLN CONC WILL BE SAVED ON UNIT  188 AT END OF TIME STEP   1, STRESS PERIOD    6
1
  VOLUMETRIC BUDGET FOR ENTIRE MODEL AT END OF TIME STEP       1 IN STRESS PERIOD       6
  ---------------------------------------------------------------------------------------

     CUMULATIVE VOLUMES      L**3       RATES FOR THIS TIME STEP      L**3/T
     ------------------                 ------------------------

           IN:                                      IN:
           ---                                      ---
        MASS STORAGE =          75.5778          MASS STORAGE =           0.5000
    CNST H MASS FLUX =           0.0000      CNST H MASS FLUX =           0.0000
      WELL MASS FLUX =           0.0000        WELL MASS FLUX =           0.0000

            TOTAL IN =          75.5778              TOTAL IN =           0.5000

          OUT:                                     OUT:
          ----                                     ----
        MASS STORAGE =           0.2827          MASS STORAGE =       1.5081E-09
    CNST H MASS FLUX =           0.0000      CNST H MASS FLUX =           0.0000
      WELL MASS FLUX =          75.2951        WELL MASS FLUX =           0.5000

           TOTAL OUT =          75.5778             TOTAL OUT =           0.5000

            IN - OUT =      -5.9018E-11              IN - OUT =      -1.5081E-09

 PERCENT DISCREPANCY =          -0.00     PERCENT DISCREPANCY =          -0.00






          TIME SUMMARY AT END OF TIME STEP         1 IN STRESS PERIOD         6
                    SECONDS     MINUTES      HOURS       DAYS        YEARS
                    -----------------------------------------------------------
   TIME STEP LENGTH  99851.      1664.2      27.736      1.1557     3.16409E-03
 STRESS PERIOD TIME  99851.      1664.2      27.736      1.1557     3.16409E-03
         TOTAL TIME 1.30598E+07 2.17664E+05  3627.7      151.16     0.41384    
1
 -------------------------------------------------------------------------------------
 
 SOLVING FOR HEAD 

 Outer-Iteration  Inner-Iteration  Backtracking  Number of        Incoming       Outgoing  Maximum HeadChange      Maximum Head Change
     Number           Count           Flag       Backtracks       Residual       Residual           Value              Location
        1                             0             0          0.438882E-01     0.438882E-01
        1                5                                                                       -0.718628E-01                 1           GWF-node number
        1                5                                                                       -0.669608E-01                 3           CLN-node number
        2                             0             0          0.866153E-14     0.866153E-14
        2                1                                                                        0.251908E-07               190           GWF-node number
        2                1                                                                        0.742043E-07                 3           CLN-node number
     2 CALLS TO SPARSE MATRIX SOLVER PACKAGE  IN FLOW TIME STEP       2 STRESS PERIOD       6

 TOTAL OF       2OUTER ITERATIONS
  MAXIMUM CHANGE FOR EACH ITERATION:
   MAX. CHANGE        NODE  MAX. CHANGE        NODE  MAX. CHANGE        NODE  MAX. CHANGE        NODE  MAX. CHANGE        NODE
 ------------------------------------------------------------------------------------------------------------------------------------
  -0.71863E-01,          1  0.25191E-07,        190

  MAXIMUM CHANGE FOR CLN NODE AT EACH ITERATION:
   MAX. CHANGE    CLN-CELL  MAX. CHANGE    CLN-CELL  MAX. CHANGE    CLN-CELL  MAX. CHANGE    CLN-CELL  MAX. CHANGE    CLN-CELL
 ------------------------------------------------------------------------------------------------------------------------------------
  -0.66961E-01,          3  0.74204E-07,          3

 HEAD/DRAWDOWN PRINTOUT FLAG = 1     TOTAL BUDGET PRINTOUT FLAG = 1
 CELL-BY-CELL FLOW TERM FLAG = 1
 CONCENTRATION PRINTOUT FLAG = 1

 OUTPUT FLAGS FOR ALL LAYERS ARE THE SAME:
   HEAD    DRAWDOWN  HEAD  DRAWDOWN    CONC    CONC
 PRINTOUT  PRINTOUT  SAVE    SAVE    PRINTOUT  SAVE
 ---------------------------------------------------
     0         0       1       1       0       1
 UBUDSVU SAVING "         STORAGE" ON UNIT  50 AT TIME STEP      2, STRESS PERIOD      6
 UBUDSV SAVING "     CLN STORAGE" ON UNIT 144 AT TIME STEP      2, STRESS PERIOD       6
 UBUDSVU SAVING "   CONSTANT HEAD" ON UNIT  50 AT TIME STEP      2, STRESS PERIOD      6
 UBUDSVU SAVING "   FLOW JA FACE " ON UNIT  50 AT TIME STEP      2, STRESS PERIOD      6
 UBUDSVU SAVING "             CLN" ON UNIT  50 AT TIME STEP      2, STRESS PERIOD      6
 UBUDSVU SAVING "  CLN CONST HEAD" ON UNIT 144 AT TIME STEP      2, STRESS PERIOD      6
 UBUDSVU SAVING "   FLOW CLN FACE" ON UNIT 144 AT TIME STEP      2, STRESS PERIOD      6
 UBUDSVU SAVING "             GWF" ON UNIT 144 AT TIME STEP      2, STRESS PERIOD      6
 UBUDSVU SAVING "           WELLS" ON UNIT  50 AT TIME STEP      2, STRESS PERIOD      6
 UBUDSVU SAVING "           WELLS" ON UNIT 144 AT TIME STEP      2, STRESS PERIOD      6

 HEAD WILL BE SAVED ON UNIT       30 AT END OF TIME STEP        2, STRESS PERIOD        6

 DRAWDOWN WILL BE SAVED ON UNIT   31 AT END OF TIME STEP   2, STRESS PERIOD    6

 CLN HEAD WILL BE SAVED ON UNIT   77 AT END OF TIME STEP   2, STRESS PERIOD    6
1
  VOLUMETRIC BUDGET FOR ENTIRE MODEL AT END OF TIME STEP       2 IN STRESS PERIOD       6
  ---------------------------------------------------------------------------------------

     CUMULATIVE VOLUMES      L**3       RATES FOR THIS TIME STEP      L**3/T
     ------------------                 ------------------------

           IN:                                      IN:
           ---                                      ---
             STORAGE =         762.7125               STORAGE =           5.0000
         CLN STORAGE =           0.0000           CLN STORAGE =           0.0000
       CONSTANT HEAD =           0.0000         CONSTANT HEAD =           0.0000
      CLN CONST HEAD =           0.0000        CLN CONST HEAD =           0.0000
               WELLS =           0.0000                 WELLS =           0.0000

            TOTAL IN =         762.7125              TOTAL IN =           5.0000

          OUT:                                     OUT:
          ----                                     ----
             STORAGE =           0.0000               STORAGE =           0.0000
         CLN STORAGE =           0.0000           CLN STORAGE =           0.0000
       CONSTANT HEAD =           0.0000         CONSTANT HEAD =           0.0000
      CLN CONST HEAD =           0.0000        CLN CONST HEAD =           0.0000
               WELLS =         762.7125                 WELLS =           5.0000

           TOTAL OUT =         762.7125             TOTAL OUT =           5.0000

            IN - OUT =       7.9026E-06              IN - OUT =       5.4118E-08

 PERCENT DISCREPANCY =           0.00     PERCENT DISCREPANCY =           0.00






          TIME SUMMARY AT END OF TIME STEP         2 IN STRESS PERIOD         6
                    SECONDS     MINUTES      HOURS       DAYS        YEARS
                    -----------------------------------------------------------
   TIME STEP LENGTH 1.19821E+05  1997.0      33.284      1.3868     3.79690E-03
 STRESS PERIOD TIME 2.19672E+05  3661.2      61.020      2.5425     6.96099E-03
         TOTAL TIME 1.31797E+07 2.19661E+05  3661.0      152.54     0.41764    
1
 ------------------------------------------------------------------------------------------------------------
 
 SOLVING FOR TRANSPORT 

 ------------------------------------------------------------------------------------------------------------------------
     1 CALLS TO SPARSE MATRIX SOLVER PACKAGE IN TRANSPORT TIME STEP       2 STRESS PERIOD       6 SPECIES  1

 TOTAL OF       1OUTER ITERATIONS
  MAXIMUM CHANGE FOR EACH ITERATION:
   MAX. CHANGE        NODE  MAX. CHANGE        NODE  MAX. CHANGE        NODE  MAX. CHANGE        NODE  MAX. CHANGE        NODE
 ------------------------------------------------------------------------------------------------------------------------------------
   0.29473E-11,        191

  MAXIMUM CHANGE FOR CLN NODE AT EACH ITERATION:
   MAX. CHANGE    CLN-CELL  MAX. CHANGE    CLN-CELL  MAX. CHANGE    CLN-CELL  MAX. CHANGE    CLN-CELL  MAX. CHANGE    CLN-CELL
 ------------------------------------------------------------------------------------------------------------------------------------
  -0.11948E-08,          3
     TRANSPORT SOLUTION COMPLETE FOR COMPONENT SPECIES NUMBER    1
     ------------------------------------------------------------
 UBUDSVU SAVING "    MASS STORAGE" ON UNIT 145 AT TIME STEP      2, STRESS PERIOD      6
 UBUDSVU SAVING "CLN MASS STORAGE" ON UNIT 145 AT TIME STEP      2, STRESS PERIOD      6
 UBUDSVU SAVING "CNST H MASS FLUX" ON UNIT 145 AT TIME STEP      2, STRESS PERIOD      6
 UBUDSVU SAVING "  WELL MASS FLUX" ON UNIT 145 AT TIME STEP      2, STRESS PERIOD      6

 TRANSPORT SOLUTION COMPLETE FOR ALL SPECIES, SORTING OUTPUT FOR CONCENTRATIONS AND MASS BALANCE
 ----------------------------------------------------------------------------------------------------
     TRANSPORT OUTPUT FOR COMPONENT SPECIES NUMBER    1
     ------------------------------------------------------------

 CONC WILL BE SAVED ON UNIT  132 AT END OF TIME STEP        2, STRESS PERIOD        6

 CLN CONC WILL BE SAVED ON UNIT  188 AT END OF TIME STEP   2, STRESS PERIOD    6
1
  VOLUMETRIC BUDGET FOR ENTIRE MODEL AT END OF TIME STEP       2 IN STRESS PERIOD       6
  ---------------------------------------------------------------------------------------

     CUMULATIVE VOLUMES      L**3       RATES FOR THIS TIME STEP      L**3/T
     ------------------                 ------------------------

           IN:                                      IN:
           ---                                      ---
        MASS STORAGE =          76.2712          MASS STORAGE =           0.5000
    CNST H MASS FLUX =           0.0000      CNST H MASS FLUX =           0.0000
      WELL MASS FLUX =           0.0000        WELL MASS FLUX =           0.0000

            TOTAL IN =          76.2712              TOTAL IN =           0.5000

          OUT:                                     OUT:
          ----                                     ----
        MASS STORAGE =           0.2827          MASS STORAGE =           0.0000
    CNST H MASS FLUX =           0.0000      CNST H MASS FLUX =           0.0000
      WELL MASS FLUX =          75.9885        WELL MASS FLUX =           0.5000

           TOTAL OUT =          76.2712             TOTAL OUT =           0.5000

            IN - OUT =      -5.8904E-11              IN - OUT =           0.0000

 PERCENT DISCREPANCY =          -0.00     PERCENT DISCREPANCY =           0.00






          TIME SUMMARY AT END OF TIME STEP         2 IN STRESS PERIOD         6
                    SECONDS     MINUTES      HOURS       DAYS        YEARS
                    -----------------------------------------------------------
   TIME STEP LENGTH 1.19821E+05  1997.0      33.284      1.3868     3.79690E-03
 STRESS PERIOD TIME 2.19672E+05  3661.2      61.020      2.5425     6.96099E-03
         TOTAL TIME 1.31797E+07 2.19661E+05  3661.0      152.54     0.41764    
1
 -------------------------------------------------------------------------------------
 
 SOLVING FOR HEAD 

 Outer-Iteration  Inner-Iteration  Backtracking  Number of        Incoming       Outgoing  Maximum HeadChange      Maximum Head Change
     Number           Count           Flag       Backtracks       Residual       Residual           Value              Location
        1                             0             0          0.438337E-01     0.438337E-01
        1                5                                                                       -0.861313E-01                 1           GWF-node number
        1                5                                                                       -0.802695E-01                 3           CLN-node number
        2                             0             0          0.273220E-13     0.273220E-13
        2                1                                                                       -0.214098E-07               190           GWF-node number
        2                1                                                                       -0.373957E-07                 2           CLN-node number
     2 CALLS TO SPARSE MATRIX SOLVER PACKAGE  IN FLOW TIME STEP       3 STRESS PERIOD       6

 TOTAL OF       2OUTER ITERATIONS
  MAXIMUM CHANGE FOR EACH ITERATION:
   MAX. CHANGE        NODE  MAX. CHANGE        NODE  MAX. CHANGE        NODE  MAX. CHANGE        NODE  MAX. CHANGE        NODE
 ------------------------------------------------------------------------------------------------------------------------------------
  -0.86131E-01,          1 -0.21410E-07,        190

  MAXIMUM CHANGE FOR CLN NODE AT EACH ITERATION:
   MAX. CHANGE    CLN-CELL  MAX. CHANGE    CLN-CELL  MAX. CHANGE    CLN-CELL  MAX. CHANGE    CLN-CELL  MAX. CHANGE    CLN-CELL
 ------------------------------------------------------------------------------------------------------------------------------------
  -0.80270E-01,          3 -0.37396E-07,          2

 HEAD/DRAWDOWN PRINTOUT FLAG = 1     TOTAL BUDGET PRINTOUT FLAG = 1
 CELL-BY-CELL FLOW TERM FLAG = 1
 CONCENTRATION PRINTOUT FLAG = 1

 OUTPUT FLAGS FOR ALL LAYERS ARE THE SAME:
   HEAD    DRAWDOWN  HEAD  DRAWDOWN    CONC    CONC
 PRINTOUT  PRINTOUT  SAVE    SAVE    PRINTOUT  SAVE
 ---------------------------------------------------
     0         0       1       1       0       1
 UBUDSVU SAVING "         STORAGE" ON UNIT  50 AT TIME STEP      3, STRESS PERIOD      6
 UBUDSV SAVING "     CLN STORAGE" ON UNIT 144 AT TIME STEP      3, STRESS PERIOD       6
 UBUDSVU SAVING "   CONSTANT HEAD" ON UNIT  50 AT TIME STEP      3, STRESS PERIOD      6
 UBUDSVU SAVING "   FLOW JA FACE " ON UNIT  50 AT TIME STEP      3, STRESS PERIOD      6
 UBUDSVU SAVING "             CLN" ON UNIT  50 AT TIME STEP      3, STRESS PERIOD      6
 UBUDSVU SAVING "  CLN CONST HEAD" ON UNIT 144 AT TIME STEP      3, STRESS PERIOD      6
 UBUDSVU SAVING "   FLOW CLN FACE" ON UNIT 144 AT TIME STEP      3, STRESS PERIOD      6
 UBUDSVU SAVING "             GWF" ON UNIT 144 AT TIME STEP      3, STRESS PERIOD      6
 UBUDSVU SAVING "           WELLS" ON UNIT  50 AT TIME STEP      3, STRESS PERIOD      6
 UBUDSVU SAVING "           WELLS" ON UNIT 144 AT TIME STEP      3, STRESS PERIOD      6

 HEAD WILL BE SAVED ON UNIT       30 AT END OF TIME STEP        3, STRESS PERIOD        6

 DRAWDOWN WILL BE SAVED ON UNIT   31 AT END OF TIME STEP   3, STRESS PERIOD    6

 CLN HEAD WILL BE SAVED ON UNIT   77 AT END OF TIME STEP   3, STRESS PERIOD    6
1
  VOLUMETRIC BUDGET FOR ENTIRE MODEL AT END OF TIME STEP       3 IN STRESS PERIOD       6
  ---------------------------------------------------------------------------------------

     CUMULATIVE VOLUMES      L**3       RATES FOR THIS TIME STEP      L**3/T
     ------------------                 ------------------------

           IN:                                      IN:
           ---                                      ---
             STORAGE =         771.0334               STORAGE =           5.0000
         CLN STORAGE =           0.0000           CLN STORAGE =           0.0000
       CONSTANT HEAD =           0.0000         CONSTANT HEAD =           0.0000
      CLN CONST HEAD =           0.0000        CLN CONST HEAD =           0.0000
               WELLS =           0.0000                 WELLS =           0.0000

            TOTAL IN =         771.0334              TOTAL IN =           5.0000

          OUT:                                     OUT:
          ----                                     ----
             STORAGE =           0.0000               STORAGE =           0.0000
         CLN STORAGE =           0.0000           CLN STORAGE =           0.0000
       CONSTANT HEAD =           0.0000         CONSTANT HEAD =           0.0000
      CLN CONST HEAD =           0.0000        CLN CONST HEAD =           0.0000
               WELLS =         771.0334                 WELLS =           5.0000

           TOTAL OUT =         771.0334             TOTAL OUT =           5.0000

            IN - OUT =       8.0003E-06              IN - OUT =       5.8752E-08

 PERCENT DISCREPANCY =           0.00     PERCENT DISCREPANCY =           0.00






          TIME SUMMARY AT END OF TIME STEP         3 IN STRESS PERIOD         6
                    SECONDS     MINUTES      HOURS       DAYS        YEARS
                    -----------------------------------------------------------
   TIME STEP LENGTH 1.43785E+05  2396.4      39.940      1.6642     4.55628E-03
 STRESS PERIOD TIME 3.63458E+05  6057.6      100.96      4.2067     1.15173E-02
         TOTAL TIME 1.33235E+07 2.22058E+05  3701.0      154.21     0.42219    
1
 ------------------------------------------------------------------------------------------------------------
 
 SOLVING FOR TRANSPORT 

 ------------------------------------------------------------------------------------------------------------------------
     1 CALLS TO SPARSE MATRIX SOLVER PACKAGE IN TRANSPORT TIME STEP       3 STRESS PERIOD       6 SPECIES  1

 TOTAL OF       1OUTER ITERATIONS
  MAXIMUM CHANGE FOR EACH ITERATION:
   MAX. CHANGE        NODE  MAX. CHANGE        NODE  MAX. CHANGE        NODE  MAX. CHANGE        NODE  MAX. CHANGE        NODE
 ------------------------------------------------------------------------------------------------------------------------------------
  -0.33621E-11,        191

  MAXIMUM CHANGE FOR CLN NODE AT EACH ITERATION:
   MAX. CHANGE    CLN-CELL  MAX. CHANGE    CLN-CELL  MAX. CHANGE    CLN-CELL  MAX. CHANGE    CLN-CELL  MAX. CHANGE    CLN-CELL
 ------------------------------------------------------------------------------------------------------------------------------------
  -0.83451E-09,          2
     TRANSPORT SOLUTION COMPLETE FOR COMPONENT SPECIES NUMBER    1
     ------------------------------------------------------------
 UBUDSVU SAVING "    MASS STORAGE" ON UNIT 145 AT TIME STEP      3, STRESS PERIOD      6
 UBUDSVU SAVING "CLN MASS STORAGE" ON UNIT 145 AT TIME STEP      3, STRESS PERIOD      6
 UBUDSVU SAVING "CNST H MASS FLUX" ON UNIT 145 AT TIME STEP      3, STRESS PERIOD      6
 UBUDSVU SAVING "  WELL MASS FLUX" ON UNIT 145 AT TIME STEP      3, STRESS PERIOD      6

 TRANSPORT SOLUTION COMPLETE FOR ALL SPECIES, SORTING OUTPUT FOR CONCENTRATIONS AND MASS BALANCE
 ----------------------------------------------------------------------------------------------------
     TRANSPORT OUTPUT FOR COMPONENT SPECIES NUMBER    1
     ------------------------------------------------------------

 CONC WILL BE SAVED ON UNIT  132 AT END OF TIME STEP        3, STRESS PERIOD        6

 CLN CONC WILL BE SAVED ON UNIT  188 AT END OF TIME STEP   3, STRESS PERIOD    6
1
  VOLUMETRIC BUDGET FOR ENTIRE MODEL AT END OF TIME STEP       3 IN STRESS PERIOD       6
  ---------------------------------------------------------------------------------------

     CUMULATIVE VOLUMES      L**3       RATES FOR THIS TIME STEP      L**3/T
     ------------------                 ------------------------

           IN:                                      IN:
           ---                                      ---
        MASS STORAGE =          77.1033          MASS STORAGE =           0.5000
    CNST H MASS FLUX =           0.0000      CNST H MASS FLUX =           0.0000
      WELL MASS FLUX =           0.0000        WELL MASS FLUX =           0.0000

            TOTAL IN =          77.1033              TOTAL IN =           0.5000

          OUT:                                     OUT:
          ----                                     ----
        MASS STORAGE =           0.2827          MASS STORAGE =       5.7297E-10
    CNST H MASS FLUX =           0.0000      CNST H MASS FLUX =           0.0000
      WELL MASS FLUX =          76.8206        WELL MASS FLUX =           0.5000

           TOTAL OUT =          77.1033             TOTAL OUT =           0.5000

            IN - OUT =      -5.9373E-11              IN - OUT =      -5.7297E-10

 PERCENT DISCREPANCY =          -0.00     PERCENT DISCREPANCY =          -0.00






          TIME SUMMARY AT END OF TIME STEP         3 IN STRESS PERIOD         6
                    SECONDS     MINUTES      HOURS       DAYS        YEARS
                    -----------------------------------------------------------
   TIME STEP LENGTH 1.43785E+05  2396.4      39.940      1.6642     4.55628E-03
 STRESS PERIOD TIME 3.63458E+05  6057.6      100.96      4.2067     1.15173E-02
         TOTAL TIME 1.33235E+07 2.22058E+05  3701.0      154.21     0.42219    
1
 -------------------------------------------------------------------------------------
 
 SOLVING FOR HEAD 

 Outer-Iteration  Inner-Iteration  Backtracking  Number of        Incoming       Outgoing  Maximum HeadChange      Maximum Head Change
     Number           Count           Flag       Backtracks       Residual       Residual           Value              Location
        1                             0             0          0.437687E-01     0.437687E-01
        1                5                                                                       -0.103210                     1           GWF-node number
        1                5                                                                       -0.962041E-01                 3           CLN-node number
        2                             0             0          0.142291E-13     0.142291E-13
        2                1                                                                       -0.626131E-07               190           GWF-node number
        2                1                                                                       -0.998139E-07                 1           CLN-node number
     2 CALLS TO SPARSE MATRIX SOLVER PACKAGE  IN FLOW TIME STEP       4 STRESS PERIOD       6

 TOTAL OF       2OUTER ITERATIONS
  MAXIMUM CHANGE FOR EACH ITERATION:
   MAX. CHANGE        NODE  MAX. CHANGE        NODE  MAX. CHANGE        NODE  MAX. CHANGE        NODE  MAX. CHANGE        NODE
 ------------------------------------------------------------------------------------------------------------------------------------
  -0.10321    ,          1 -0.62613E-07,        190

  MAXIMUM CHANGE FOR CLN NODE AT EACH ITERATION:
   MAX. CHANGE    CLN-CELL  MAX. CHANGE    CLN-CELL  MAX. CHANGE    CLN-CELL  MAX. CHANGE    CLN-CELL  MAX. CHANGE    CLN-CELL
 ------------------------------------------------------------------------------------------------------------------------------------
  -0.96204E-01,          3 -0.99814E-07,          1

 HEAD/DRAWDOWN PRINTOUT FLAG = 1     TOTAL BUDGET PRINTOUT FLAG = 1
 CELL-BY-CELL FLOW TERM FLAG = 1
 CONCENTRATION PRINTOUT FLAG = 1

 OUTPUT FLAGS FOR ALL LAYERS ARE THE SAME:
   HEAD    DRAWDOWN  HEAD  DRAWDOWN    CONC    CONC
 PRINTOUT  PRINTOUT  SAVE    SAVE    PRINTOUT  SAVE
 ---------------------------------------------------
     0         0       1       1       0       1
 UBUDSVU SAVING "         STORAGE" ON UNIT  50 AT TIME STEP      4, STRESS PERIOD      6
 UBUDSV SAVING "     CLN STORAGE" ON UNIT 144 AT TIME STEP      4, STRESS PERIOD       6
 UBUDSVU SAVING "   CONSTANT HEAD" ON UNIT  50 AT TIME STEP      4, STRESS PERIOD      6
 UBUDSVU SAVING "   FLOW JA FACE " ON UNIT  50 AT TIME STEP      4, STRESS PERIOD      6
 UBUDSVU SAVING "             CLN" ON UNIT  50 AT TIME STEP      4, STRESS PERIOD      6
 UBUDSVU SAVING "  CLN CONST HEAD" ON UNIT 144 AT TIME STEP      4, STRESS PERIOD      6
 UBUDSVU SAVING "   FLOW CLN FACE" ON UNIT 144 AT TIME STEP      4, STRESS PERIOD      6
 UBUDSVU SAVING "             GWF" ON UNIT 144 AT TIME STEP      4, STRESS PERIOD      6
 UBUDSVU SAVING "           WELLS" ON UNIT  50 AT TIME STEP      4, STRESS PERIOD      6
 UBUDSVU SAVING "           WELLS" ON UNIT 144 AT TIME STEP      4, STRESS PERIOD      6

 HEAD WILL BE SAVED ON UNIT       30 AT END OF TIME STEP        4, STRESS PERIOD        6

 DRAWDOWN WILL BE SAVED ON UNIT   31 AT END OF TIME STEP   4, STRESS PERIOD    6

 CLN HEAD WILL BE SAVED ON UNIT   77 AT END OF TIME STEP   4, STRESS PERIOD    6
1
  VOLUMETRIC BUDGET FOR ENTIRE MODEL AT END OF TIME STEP       4 IN STRESS PERIOD       6
  ---------------------------------------------------------------------------------------

     CUMULATIVE VOLUMES      L**3       RATES FOR THIS TIME STEP      L**3/T
     ------------------                 ------------------------

           IN:                                      IN:
           ---                                      ---
             STORAGE =         781.0185               STORAGE =           5.0000
         CLN STORAGE =           0.0000           CLN STORAGE =           0.0000
       CONSTANT HEAD =           0.0000         CONSTANT HEAD =           0.0000
      CLN CONST HEAD =           0.0000        CLN CONST HEAD =           0.0000
               WELLS =           0.0000                 WELLS =           0.0000

            TOTAL IN =         781.0185              TOTAL IN =           5.0000

          OUT:                                     OUT:
          ----                                     ----
             STORAGE =           0.0000               STORAGE =           0.0000
         CLN STORAGE =           0.0000           CLN STORAGE =           0.0000
       CONSTANT HEAD =           0.0000         CONSTANT HEAD =           0.0000
      CLN CONST HEAD =           0.0000        CLN CONST HEAD =           0.0000
               WELLS =         781.0185                 WELLS =           5.0000

           TOTAL OUT =         781.0185             TOTAL OUT =           5.0000

            IN - OUT =       8.0990E-06              IN - OUT =       4.9410E-08

 PERCENT DISCREPANCY =           0.00     PERCENT DISCREPANCY =           0.00






          TIME SUMMARY AT END OF TIME STEP         4 IN STRESS PERIOD         6
                    SECONDS     MINUTES      HOURS       DAYS        YEARS
                    -----------------------------------------------------------
   TIME STEP LENGTH 1.72542E+05  2875.7      47.928      1.9970     5.46754E-03
 STRESS PERIOD TIME 5.36000E+05  8933.3      148.89      6.2037     1.69848E-02
         TOTAL TIME 1.34960E+07 2.24933E+05  3748.9      156.20     0.42766    
1
 ------------------------------------------------------------------------------------------------------------
 
 SOLVING FOR TRANSPORT 

 ------------------------------------------------------------------------------------------------------------------------
     1 CALLS TO SPARSE MATRIX SOLVER PACKAGE IN TRANSPORT TIME STEP       4 STRESS PERIOD       6 SPECIES  1

 TOTAL OF       1OUTER ITERATIONS
  MAXIMUM CHANGE FOR EACH ITERATION:
   MAX. CHANGE        NODE  MAX. CHANGE        NODE  MAX. CHANGE        NODE  MAX. CHANGE        NODE  MAX. CHANGE        NODE
 ------------------------------------------------------------------------------------------------------------------------------------
  -0.89217E-11,        191

  MAXIMUM CHANGE FOR CLN NODE AT EACH ITERATION:
   MAX. CHANGE    CLN-CELL  MAX. CHANGE    CLN-CELL  MAX. CHANGE    CLN-CELL  MAX. CHANGE    CLN-CELL  MAX. CHANGE    CLN-CELL
 ------------------------------------------------------------------------------------------------------------------------------------
   0.35687E-09,          1
     TRANSPORT SOLUTION COMPLETE FOR COMPONENT SPECIES NUMBER    1
     ------------------------------------------------------------
 UBUDSVU SAVING "    MASS STORAGE" ON UNIT 145 AT TIME STEP      4, STRESS PERIOD      6
 UBUDSVU SAVING "CLN MASS STORAGE" ON UNIT 145 AT TIME STEP      4, STRESS PERIOD      6
 UBUDSVU SAVING "CNST H MASS FLUX" ON UNIT 145 AT TIME STEP      4, STRESS PERIOD      6
 UBUDSVU SAVING "  WELL MASS FLUX" ON UNIT 145 AT TIME STEP      4, STRESS PERIOD      6

 TRANSPORT SOLUTION COMPLETE FOR ALL SPECIES, SORTING OUTPUT FOR CONCENTRATIONS AND MASS BALANCE
 ----------------------------------------------------------------------------------------------------
     TRANSPORT OUTPUT FOR COMPONENT SPECIES NUMBER    1
     ------------------------------------------------------------

 CONC WILL BE SAVED ON UNIT  132 AT END OF TIME STEP        4, STRESS PERIOD        6

 CLN CONC WILL BE SAVED ON UNIT  188 AT END OF TIME STEP   4, STRESS PERIOD    6
1
  VOLUMETRIC BUDGET FOR ENTIRE MODEL AT END OF TIME STEP       4 IN STRESS PERIOD       6
  ---------------------------------------------------------------------------------------

     CUMULATIVE VOLUMES      L**3       RATES FOR THIS TIME STEP      L**3/T
     ------------------                 ------------------------

           IN:                                      IN:
           ---                                      ---
        MASS STORAGE =          78.1019          MASS STORAGE =           0.5000
    CNST H MASS FLUX =           0.0000      CNST H MASS FLUX =           0.0000
      WELL MASS FLUX =           0.0000        WELL MASS FLUX =           0.0000

            TOTAL IN =          78.1019              TOTAL IN =           0.5000

          OUT:                                     OUT:
          ----                                     ----
        MASS STORAGE =           0.2827          MASS STORAGE =       3.4929E-10
    CNST H MASS FLUX =           0.0000      CNST H MASS FLUX =           0.0000
      WELL MASS FLUX =          77.8191        WELL MASS FLUX =           0.5000

           TOTAL OUT =          78.1019             TOTAL OUT =           0.5000

            IN - OUT =      -6.1377E-11              IN - OUT =      -3.4929E-10

 PERCENT DISCREPANCY =          -0.00     PERCENT DISCREPANCY =          -0.00






          TIME SUMMARY AT END OF TIME STEP         4 IN STRESS PERIOD         6
                    SECONDS     MINUTES      HOURS       DAYS        YEARS
                    -----------------------------------------------------------
   TIME STEP LENGTH 1.72542E+05  2875.7      47.928      1.9970     5.46754E-03
 STRESS PERIOD TIME 5.36000E+05  8933.3      148.89      6.2037     1.69848E-02
         TOTAL TIME 1.34960E+07 2.24933E+05  3748.9      156.20     0.42766    
1
 -------------------------------------------------------------------------------------
 
 SOLVING FOR HEAD 

 Outer-Iteration  Inner-Iteration  Backtracking  Number of        Incoming       Outgoing  Maximum HeadChange      Maximum Head Change
     Number           Count           Flag       Backtracks       Residual       Residual           Value              Location
        1                             0             0          0.436912E-01     0.436912E-01
        1                6                                                                       -0.123643                     1           GWF-node number
        1                6                                                                       -0.115275                     3           CLN-node number
        2                             0             0          0.236779E-14     0.236779E-14
        2                1                                                                        0.278191E-07               190           GWF-node number
        2                1                                                                        0.730884E-07                 3           CLN-node number
     2 CALLS TO SPARSE MATRIX SOLVER PACKAGE  IN FLOW TIME STEP       5 STRESS PERIOD       6

 TOTAL OF       2OUTER ITERATIONS
  MAXIMUM CHANGE FOR EACH ITERATION:
   MAX. CHANGE        NODE  MAX. CHANGE        NODE  MAX. CHANGE        NODE  MAX. CHANGE        NODE  MAX. CHANGE        NODE
 ------------------------------------------------------------------------------------------------------------------------------------
  -0.12364    ,          1  0.27819E-07,        190

  MAXIMUM CHANGE FOR CLN NODE AT EACH ITERATION:
   MAX. CHANGE    CLN-CELL  MAX. CHANGE    CLN-CELL  MAX. CHANGE    CLN-CELL  MAX. CHANGE    CLN-CELL  MAX. CHANGE    CLN-CELL
 ------------------------------------------------------------------------------------------------------------------------------------
  -0.11528    ,          3  0.73088E-07,          3

 HEAD/DRAWDOWN PRINTOUT FLAG = 1     TOTAL BUDGET PRINTOUT FLAG = 1
 CELL-BY-CELL FLOW TERM FLAG = 1
 CONCENTRATION PRINTOUT FLAG = 1

 OUTPUT FLAGS FOR ALL LAYERS ARE THE SAME:
   HEAD    DRAWDOWN  HEAD  DRAWDOWN    CONC    CONC
 PRINTOUT  PRINTOUT  SAVE    SAVE    PRINTOUT  SAVE
 ---------------------------------------------------
     0         0       1       1       0       1
 UBUDSVU SAVING "         STORAGE" ON UNIT  50 AT TIME STEP      5, STRESS PERIOD      6
 UBUDSV SAVING "     CLN STORAGE" ON UNIT 144 AT TIME STEP      5, STRESS PERIOD       6
 UBUDSVU SAVING "   CONSTANT HEAD" ON UNIT  50 AT TIME STEP      5, STRESS PERIOD      6
 UBUDSVU SAVING "   FLOW JA FACE " ON UNIT  50 AT TIME STEP      5, STRESS PERIOD      6
 UBUDSVU SAVING "             CLN" ON UNIT  50 AT TIME STEP      5, STRESS PERIOD      6
 UBUDSVU SAVING "  CLN CONST HEAD" ON UNIT 144 AT TIME STEP      5, STRESS PERIOD      6
 UBUDSVU SAVING "   FLOW CLN FACE" ON UNIT 144 AT TIME STEP      5, STRESS PERIOD      6
 UBUDSVU SAVING "             GWF" ON UNIT 144 AT TIME STEP      5, STRESS PERIOD      6
 UBUDSVU SAVING "           WELLS" ON UNIT  50 AT TIME STEP      5, STRESS PERIOD      6
 UBUDSVU SAVING "           WELLS" ON UNIT 144 AT TIME STEP      5, STRESS PERIOD      6

 HEAD WILL BE SAVED ON UNIT       30 AT END OF TIME STEP        5, STRESS PERIOD        6

 DRAWDOWN WILL BE SAVED ON UNIT   31 AT END OF TIME STEP   5, STRESS PERIOD    6

 CLN HEAD WILL BE SAVED ON UNIT   77 AT END OF TIME STEP   5, STRESS PERIOD    6
1
  VOLUMETRIC BUDGET FOR ENTIRE MODEL AT END OF TIME STEP       5 IN STRESS PERIOD       6
  ---------------------------------------------------------------------------------------

     CUMULATIVE VOLUMES      L**3       RATES FOR THIS TIME STEP      L**3/T
     ------------------                 ------------------------

           IN:                                      IN:
           ---                                      ---
             STORAGE =         793.0006               STORAGE =           5.0000
         CLN STORAGE =           0.0000           CLN STORAGE =           0.0000
       CONSTANT HEAD =           0.0000         CONSTANT HEAD =           0.0000
      CLN CONST HEAD =           0.0000        CLN CONST HEAD =           0.0000
               WELLS =           0.0000                 WELLS =           0.0000

            TOTAL IN =         793.0006              TOTAL IN =           5.0000

          OUT:                                     OUT:
          ----                                     ----
             STORAGE =           0.0000               STORAGE =           0.0000
         CLN STORAGE =           0.0000           CLN STORAGE =           0.0000
       CONSTANT HEAD =           0.0000         CONSTANT HEAD =           0.0000
      CLN CONST HEAD =           0.0000        CLN CONST HEAD =           0.0000
               WELLS =         793.0006                 WELLS =           5.0000

           TOTAL OUT =         793.0006             TOTAL OUT =           5.0000

            IN - OUT =       8.1751E-06              IN - OUT =       3.1766E-08

 PERCENT DISCREPANCY =           0.00     PERCENT DISCREPANCY =           0.00






          TIME SUMMARY AT END OF TIME STEP         5 IN STRESS PERIOD         6
                    SECONDS     MINUTES      HOURS       DAYS        YEARS
                    -----------------------------------------------------------
   TIME STEP LENGTH 2.07051E+05  3450.8      57.514      2.3964     6.56105E-03
 STRESS PERIOD TIME 7.43051E+05  12384.      206.40      8.6001     2.35459E-02
         TOTAL TIME 1.37030E+07 2.28384E+05  3806.4      158.60     0.43422    
1
 ------------------------------------------------------------------------------------------------------------
 
 SOLVING FOR TRANSPORT 

 ------------------------------------------------------------------------------------------------------------------------
     1 CALLS TO SPARSE MATRIX SOLVER PACKAGE IN TRANSPORT TIME STEP       5 STRESS PERIOD       6 SPECIES  1

 TOTAL OF       1OUTER ITERATIONS
  MAXIMUM CHANGE FOR EACH ITERATION:
   MAX. CHANGE        NODE  MAX. CHANGE        NODE  MAX. CHANGE        NODE  MAX. CHANGE        NODE  MAX. CHANGE        NODE
 ------------------------------------------------------------------------------------------------------------------------------------
   0.55821E-11,        191

  MAXIMUM CHANGE FOR CLN NODE AT EACH ITERATION:
   MAX. CHANGE    CLN-CELL  MAX. CHANGE    CLN-CELL  MAX. CHANGE    CLN-CELL  MAX. CHANGE    CLN-CELL  MAX. CHANGE    CLN-CELL
 ------------------------------------------------------------------------------------------------------------------------------------
  -0.91168E-09,          3
     TRANSPORT SOLUTION COMPLETE FOR COMPONENT SPECIES NUMBER    1
     ------------------------------------------------------------
 UBUDSVU SAVING "    MASS STORAGE" ON UNIT 145 AT TIME STEP      5, STRESS PERIOD      6
 UBUDSVU SAVING "CLN MASS STORAGE" ON UNIT 145 AT TIME STEP      5, STRESS PERIOD      6
 UBUDSVU SAVING "CNST H MASS FLUX" ON UNIT 145 AT TIME STEP      5, STRESS PERIOD      6
 UBUDSVU SAVING "  WELL MASS FLUX" ON UNIT 145 AT TIME STEP      5, STRESS PERIOD      6

 TRANSPORT SOLUTION COMPLETE FOR ALL SPECIES, SORTING OUTPUT FOR CONCENTRATIONS AND MASS BALANCE
 ----------------------------------------------------------------------------------------------------
     TRANSPORT OUTPUT FOR COMPONENT SPECIES NUMBER    1
     ------------------------------------------------------------

 CONC WILL BE SAVED ON UNIT  132 AT END OF TIME STEP        5, STRESS PERIOD        6

 CLN CONC WILL BE SAVED ON UNIT  188 AT END OF TIME STEP   5, STRESS PERIOD    6
1
  VOLUMETRIC BUDGET FOR ENTIRE MODEL AT END OF TIME STEP       5 IN STRESS PERIOD       6
  ---------------------------------------------------------------------------------------

     CUMULATIVE VOLUMES      L**3       RATES FOR THIS TIME STEP      L**3/T
     ------------------                 ------------------------

           IN:                                      IN:
           ---                                      ---
        MASS STORAGE =          79.3001          MASS STORAGE =           0.5000
    CNST H MASS FLUX =           0.0000      CNST H MASS FLUX =           0.0000
      WELL MASS FLUX =           0.0000        WELL MASS FLUX =           0.0000

            TOTAL IN =          79.3001              TOTAL IN =           0.5000

          OUT:                                     OUT:
          ----                                     ----
        MASS STORAGE =           0.2827          MASS STORAGE =       2.9225E-11
    CNST H MASS FLUX =           0.0000      CNST H MASS FLUX =           0.0000
      WELL MASS FLUX =          79.0173        WELL MASS FLUX =           0.5000

           TOTAL OUT =          79.3001             TOTAL OUT =           0.5000

            IN - OUT =      -5.9913E-11              IN - OUT =      -2.9225E-11

 PERCENT DISCREPANCY =          -0.00     PERCENT DISCREPANCY =          -0.00






          TIME SUMMARY AT END OF TIME STEP         5 IN STRESS PERIOD         6
                    SECONDS     MINUTES      HOURS       DAYS        YEARS
                    -----------------------------------------------------------
   TIME STEP LENGTH 2.07051E+05  3450.8      57.514      2.3964     6.56105E-03
 STRESS PERIOD TIME 7.43051E+05  12384.      206.40      8.6001     2.35459E-02
         TOTAL TIME 1.37030E+07 2.28384E+05  3806.4      158.60     0.43422    
1
 -------------------------------------------------------------------------------------
 
 SOLVING FOR HEAD 

 Outer-Iteration  Inner-Iteration  Backtracking  Number of        Incoming       Outgoing  Maximum HeadChange      Maximum Head Change
     Number           Count           Flag       Backtracks       Residual       Residual           Value              Location
        1                             0             0          0.435990E-01     0.435990E-01
        1                6                                                                       -0.148076                     1           GWF-node number
        1                6                                                                       -0.138091                     1           CLN-node number
        2                             0             0          0.236100E-13     0.236100E-13
        2                1                                                                        0.111795E-06               190           GWF-node number
        2                1                                                                        0.288407E-06                 3           CLN-node number
     2 CALLS TO SPARSE MATRIX SOLVER PACKAGE  IN FLOW TIME STEP       6 STRESS PERIOD       6

 TOTAL OF       2OUTER ITERATIONS
  MAXIMUM CHANGE FOR EACH ITERATION:
   MAX. CHANGE        NODE  MAX. CHANGE        NODE  MAX. CHANGE        NODE  MAX. CHANGE        NODE  MAX. CHANGE        NODE
 ------------------------------------------------------------------------------------------------------------------------------------
  -0.14808    ,          1  0.11179E-06,        190

  MAXIMUM CHANGE FOR CLN NODE AT EACH ITERATION:
   MAX. CHANGE    CLN-CELL  MAX. CHANGE    CLN-CELL  MAX. CHANGE    CLN-CELL  MAX. CHANGE    CLN-CELL  MAX. CHANGE    CLN-CELL
 ------------------------------------------------------------------------------------------------------------------------------------
  -0.13809    ,          1  0.28841E-06,          3

 HEAD/DRAWDOWN PRINTOUT FLAG = 1     TOTAL BUDGET PRINTOUT FLAG = 1
 CELL-BY-CELL FLOW TERM FLAG = 1
 CONCENTRATION PRINTOUT FLAG = 1

 OUTPUT FLAGS FOR ALL LAYERS ARE THE SAME:
   HEAD    DRAWDOWN  HEAD  DRAWDOWN    CONC    CONC
 PRINTOUT  PRINTOUT  SAVE    SAVE    PRINTOUT  SAVE
 ---------------------------------------------------
     0         0       1       1       0       1
 UBUDSVU SAVING "         STORAGE" ON UNIT  50 AT TIME STEP      6, STRESS PERIOD      6
 UBUDSV SAVING "     CLN STORAGE" ON UNIT 144 AT TIME STEP      6, STRESS PERIOD       6
 UBUDSVU SAVING "   CONSTANT HEAD" ON UNIT  50 AT TIME STEP      6, STRESS PERIOD      6
 UBUDSVU SAVING "   FLOW JA FACE " ON UNIT  50 AT TIME STEP      6, STRESS PERIOD      6
 UBUDSVU SAVING "             CLN" ON UNIT  50 AT TIME STEP      6, STRESS PERIOD      6
 UBUDSVU SAVING "  CLN CONST HEAD" ON UNIT 144 AT TIME STEP      6, STRESS PERIOD      6
 UBUDSVU SAVING "   FLOW CLN FACE" ON UNIT 144 AT TIME STEP      6, STRESS PERIOD      6
 UBUDSVU SAVING "             GWF" ON UNIT 144 AT TIME STEP      6, STRESS PERIOD      6
 UBUDSVU SAVING "           WELLS" ON UNIT  50 AT TIME STEP      6, STRESS PERIOD      6
 UBUDSVU SAVING "           WELLS" ON UNIT 144 AT TIME STEP      6, STRESS PERIOD      6

 HEAD WILL BE SAVED ON UNIT       30 AT END OF TIME STEP        6, STRESS PERIOD        6

 DRAWDOWN WILL BE SAVED ON UNIT   31 AT END OF TIME STEP   6, STRESS PERIOD    6

 CLN HEAD WILL BE SAVED ON UNIT   77 AT END OF TIME STEP   6, STRESS PERIOD    6
1
  VOLUMETRIC BUDGET FOR ENTIRE MODEL AT END OF TIME STEP       6 IN STRESS PERIOD       6
  ---------------------------------------------------------------------------------------

     CUMULATIVE VOLUMES      L**3       RATES FOR THIS TIME STEP      L**3/T
     ------------------                 ------------------------

           IN:                                      IN:
           ---                                      ---
             STORAGE =         807.3792               STORAGE =           5.0000
         CLN STORAGE =           0.0000           CLN STORAGE =           0.0000
       CONSTANT HEAD =           0.0000         CONSTANT HEAD =           0.0000
      CLN CONST HEAD =           0.0000        CLN CONST HEAD =           0.0000
               WELLS =           0.0000                 WELLS =           0.0000

            TOTAL IN =         807.3792              TOTAL IN =           5.0000

          OUT:                                     OUT:
          ----                                     ----
             STORAGE =           0.0000               STORAGE =           0.0000
         CLN STORAGE =           0.0000           CLN STORAGE =           0.0000
       CONSTANT HEAD =           0.0000         CONSTANT HEAD =           0.0000
      CLN CONST HEAD =           0.0000        CLN CONST HEAD =           0.0000
               WELLS =         807.3791                 WELLS =           5.0000

           TOTAL OUT =         807.3791             TOTAL OUT =           5.0000

            IN - OUT =       8.3749E-06              IN - OUT =       6.9482E-08

 PERCENT DISCREPANCY =           0.00     PERCENT DISCREPANCY =           0.00






          TIME SUMMARY AT END OF TIME STEP         6 IN STRESS PERIOD         6
                    SECONDS     MINUTES      HOURS       DAYS        YEARS
                    -----------------------------------------------------------
   TIME STEP LENGTH 2.48461E+05  4141.0      69.017      2.8757     7.87326E-03
 STRESS PERIOD TIME 9.91512E+05  16525.      275.42      11.476     3.14191E-02
         TOTAL TIME 1.39515E+07 2.32525E+05  3875.4      161.48     0.44210    
1
 ------------------------------------------------------------------------------------------------------------
 
 SOLVING FOR TRANSPORT 

 ------------------------------------------------------------------------------------------------------------------------
     1 CALLS TO SPARSE MATRIX SOLVER PACKAGE IN TRANSPORT TIME STEP       6 STRESS PERIOD       6 SPECIES  1

 TOTAL OF       1OUTER ITERATIONS
  MAXIMUM CHANGE FOR EACH ITERATION:
   MAX. CHANGE        NODE  MAX. CHANGE        NODE  MAX. CHANGE        NODE  MAX. CHANGE        NODE  MAX. CHANGE        NODE
 ------------------------------------------------------------------------------------------------------------------------------------
   0.31501E-10,        191

  MAXIMUM CHANGE FOR CLN NODE AT EACH ITERATION:
   MAX. CHANGE    CLN-CELL  MAX. CHANGE    CLN-CELL  MAX. CHANGE    CLN-CELL  MAX. CHANGE    CLN-CELL  MAX. CHANGE    CLN-CELL
 ------------------------------------------------------------------------------------------------------------------------------------
  -0.10826E-08,          2
     TRANSPORT SOLUTION COMPLETE FOR COMPONENT SPECIES NUMBER    1
     ------------------------------------------------------------
 UBUDSVU SAVING "    MASS STORAGE" ON UNIT 145 AT TIME STEP      6, STRESS PERIOD      6
 UBUDSVU SAVING "CLN MASS STORAGE" ON UNIT 145 AT TIME STEP      6, STRESS PERIOD      6
 UBUDSVU SAVING "CNST H MASS FLUX" ON UNIT 145 AT TIME STEP      6, STRESS PERIOD      6
 UBUDSVU SAVING "  WELL MASS FLUX" ON UNIT 145 AT TIME STEP      6, STRESS PERIOD      6

 TRANSPORT SOLUTION COMPLETE FOR ALL SPECIES, SORTING OUTPUT FOR CONCENTRATIONS AND MASS BALANCE
 ----------------------------------------------------------------------------------------------------
     TRANSPORT OUTPUT FOR COMPONENT SPECIES NUMBER    1
     ------------------------------------------------------------

 CONC WILL BE SAVED ON UNIT  132 AT END OF TIME STEP        6, STRESS PERIOD        6

 CLN CONC WILL BE SAVED ON UNIT  188 AT END OF TIME STEP   6, STRESS PERIOD    6
1
  VOLUMETRIC BUDGET FOR ENTIRE MODEL AT END OF TIME STEP       6 IN STRESS PERIOD       6
  ---------------------------------------------------------------------------------------

     CUMULATIVE VOLUMES      L**3       RATES FOR THIS TIME STEP      L**3/T
     ------------------                 ------------------------

           IN:                                      IN:
           ---                                      ---
        MASS STORAGE =          80.7379          MASS STORAGE =           0.5000
    CNST H MASS FLUX =           0.0000      CNST H MASS FLUX =           0.0000
      WELL MASS FLUX =           0.0000        WELL MASS FLUX =           0.0000

            TOTAL IN =          80.7379              TOTAL IN =           0.5000

          OUT:                                     OUT:
          ----                                     ----
        MASS STORAGE =           0.2827          MASS STORAGE =           0.0000
    CNST H MASS FLUX =           0.0000      CNST H MASS FLUX =           0.0000
      WELL MASS FLUX =          80.4552        WELL MASS FLUX =           0.5000

           TOTAL OUT =          80.7379             TOTAL OUT =           0.5000

            IN - OUT =      -4.4338E-11              IN - OUT =           0.0000

 PERCENT DISCREPANCY =          -0.00     PERCENT DISCREPANCY =           0.00






          TIME SUMMARY AT END OF TIME STEP         6 IN STRESS PERIOD         6
                    SECONDS     MINUTES      HOURS       DAYS        YEARS
                    -----------------------------------------------------------
   TIME STEP LENGTH 2.48461E+05  4141.0      69.017      2.8757     7.87326E-03
 STRESS PERIOD TIME 9.91512E+05  16525.      275.42      11.476     3.14191E-02
         TOTAL TIME 1.39515E+07 2.32525E+05  3875.4      161.48     0.44210    
1
 -------------------------------------------------------------------------------------
 
 SOLVING FOR HEAD 

 Outer-Iteration  Inner-Iteration  Backtracking  Number of        Incoming       Outgoing  Maximum HeadChange      Maximum Head Change
     Number           Count           Flag       Backtracks       Residual       Residual           Value              Location
        1                             0             0          0.434894E-01     0.434894E-01
        1                6                                                                       -0.177275                     1           GWF-node number
        1                6                                                                       -0.165368                     1           CLN-node number
        2                             0             0          0.146285E-13     0.146285E-13
        2                1                                                                        0.721802E-07               190           GWF-node number
        2                1                                                                        0.196473E-06                 3           CLN-node number
     2 CALLS TO SPARSE MATRIX SOLVER PACKAGE  IN FLOW TIME STEP       7 STRESS PERIOD       6

 TOTAL OF       2OUTER ITERATIONS
  MAXIMUM CHANGE FOR EACH ITERATION:
   MAX. CHANGE        NODE  MAX. CHANGE        NODE  MAX. CHANGE        NODE  MAX. CHANGE        NODE  MAX. CHANGE        NODE
 ------------------------------------------------------------------------------------------------------------------------------------
  -0.17727    ,          1  0.72180E-07,        190

  MAXIMUM CHANGE FOR CLN NODE AT EACH ITERATION:
   MAX. CHANGE    CLN-CELL  MAX. CHANGE    CLN-CELL  MAX. CHANGE    CLN-CELL  MAX. CHANGE    CLN-CELL  MAX. CHANGE    CLN-CELL
 ------------------------------------------------------------------------------------------------------------------------------------
  -0.16537    ,          1  0.19647E-06,          3

 HEAD/DRAWDOWN PRINTOUT FLAG = 1     TOTAL BUDGET PRINTOUT FLAG = 1
 CELL-BY-CELL FLOW TERM FLAG = 1
 CONCENTRATION PRINTOUT FLAG = 1

 OUTPUT FLAGS FOR ALL LAYERS ARE THE SAME:
   HEAD    DRAWDOWN  HEAD  DRAWDOWN    CONC    CONC
 PRINTOUT  PRINTOUT  SAVE    SAVE    PRINTOUT  SAVE
 ---------------------------------------------------
     0         0       1       1       0       1
 UBUDSVU SAVING "         STORAGE" ON UNIT  50 AT TIME STEP      7, STRESS PERIOD      6
 UBUDSV SAVING "     CLN STORAGE" ON UNIT 144 AT TIME STEP      7, STRESS PERIOD       6
 UBUDSVU SAVING "   CONSTANT HEAD" ON UNIT  50 AT TIME STEP      7, STRESS PERIOD      6
 UBUDSVU SAVING "   FLOW JA FACE " ON UNIT  50 AT TIME STEP      7, STRESS PERIOD      6
 UBUDSVU SAVING "             CLN" ON UNIT  50 AT TIME STEP      7, STRESS PERIOD      6
 UBUDSVU SAVING "  CLN CONST HEAD" ON UNIT 144 AT TIME STEP      7, STRESS PERIOD      6
 UBUDSVU SAVING "   FLOW CLN FACE" ON UNIT 144 AT TIME STEP      7, STRESS PERIOD      6
 UBUDSVU SAVING "             GWF" ON UNIT 144 AT TIME STEP      7, STRESS PERIOD      6
 UBUDSVU SAVING "           WELLS" ON UNIT  50 AT TIME STEP      7, STRESS PERIOD      6
 UBUDSVU SAVING "           WELLS" ON UNIT 144 AT TIME STEP      7, STRESS PERIOD      6

 HEAD WILL BE SAVED ON UNIT       30 AT END OF TIME STEP        7, STRESS PERIOD        6

 DRAWDOWN WILL BE SAVED ON UNIT   31 AT END OF TIME STEP   7, STRESS PERIOD    6

 CLN HEAD WILL BE SAVED ON UNIT   77 AT END OF TIME STEP   7, STRESS PERIOD    6
1
  VOLUMETRIC BUDGET FOR ENTIRE MODEL AT END OF TIME STEP       7 IN STRESS PERIOD       6
  ---------------------------------------------------------------------------------------

     CUMULATIVE VOLUMES      L**3       RATES FOR THIS TIME STEP      L**3/T
     ------------------                 ------------------------

           IN:                                      IN:
           ---                                      ---
             STORAGE =         824.6334               STORAGE =           5.0000
         CLN STORAGE =           0.0000           CLN STORAGE =           0.0000
       CONSTANT HEAD =           0.0000         CONSTANT HEAD =           0.0000
      CLN CONST HEAD =           0.0000        CLN CONST HEAD =           0.0000
               WELLS =           0.0000                 WELLS =           0.0000

            TOTAL IN =         824.6334              TOTAL IN =           5.0000

          OUT:                                     OUT:
          ----                                     ----
             STORAGE =           0.0000               STORAGE =           0.0000
         CLN STORAGE =           0.0000           CLN STORAGE =           0.0000
       CONSTANT HEAD =           0.0000         CONSTANT HEAD =           0.0000
      CLN CONST HEAD =           0.0000        CLN CONST HEAD =           0.0000
               WELLS =         824.6334                 WELLS =           5.0000

           TOTAL OUT =         824.6334             TOTAL OUT =           5.0000

            IN - OUT =       8.6520E-06              IN - OUT =       8.0271E-08

 PERCENT DISCREPANCY =           0.00     PERCENT DISCREPANCY =           0.00






          TIME SUMMARY AT END OF TIME STEP         7 IN STRESS PERIOD         6
                    SECONDS     MINUTES      HOURS       DAYS        YEARS
                    -----------------------------------------------------------
   TIME STEP LENGTH 2.98153E+05  4969.2      82.820      3.4509     9.44791E-03
 STRESS PERIOD TIME 1.28967E+06  21494.      358.24      14.927     4.08670E-02
         TOTAL TIME 1.42497E+07 2.37494E+05  3958.2      164.93     0.45154    
1
 ------------------------------------------------------------------------------------------------------------
 
 SOLVING FOR TRANSPORT 

 ------------------------------------------------------------------------------------------------------------------------
     1 CALLS TO SPARSE MATRIX SOLVER PACKAGE IN TRANSPORT TIME STEP       7 STRESS PERIOD       6 SPECIES  1

 TOTAL OF       1OUTER ITERATIONS
  MAXIMUM CHANGE FOR EACH ITERATION:
   MAX. CHANGE        NODE  MAX. CHANGE        NODE  MAX. CHANGE        NODE  MAX. CHANGE        NODE  MAX. CHANGE        NODE
 ------------------------------------------------------------------------------------------------------------------------------------
   0.24894E-10,        191

  MAXIMUM CHANGE FOR CLN NODE AT EACH ITERATION:
   MAX. CHANGE    CLN-CELL  MAX. CHANGE    CLN-CELL  MAX. CHANGE    CLN-CELL  MAX. CHANGE    CLN-CELL  MAX. CHANGE    CLN-CELL
 ------------------------------------------------------------------------------------------------------------------------------------
   0.47003E-09,          3
     TRANSPORT SOLUTION COMPLETE FOR COMPONENT SPECIES NUMBER    1
     ------------------------------------------------------------
 UBUDSVU SAVING "    MASS STORAGE" ON UNIT 145 AT TIME STEP      7, STRESS PERIOD      6
 UBUDSVU SAVING "CLN MASS STORAGE" ON UNIT 145 AT TIME STEP      7, STRESS PERIOD      6
 UBUDSVU SAVING "CNST H MASS FLUX" ON UNIT 145 AT TIME STEP      7, STRESS PERIOD      6
 UBUDSVU SAVING "  WELL MASS FLUX" ON UNIT 145 AT TIME STEP      7, STRESS PERIOD      6

 TRANSPORT SOLUTION COMPLETE FOR ALL SPECIES, SORTING OUTPUT FOR CONCENTRATIONS AND MASS BALANCE
 ----------------------------------------------------------------------------------------------------
     TRANSPORT OUTPUT FOR COMPONENT SPECIES NUMBER    1
     ------------------------------------------------------------

 CONC WILL BE SAVED ON UNIT  132 AT END OF TIME STEP        7, STRESS PERIOD        6

 CLN CONC WILL BE SAVED ON UNIT  188 AT END OF TIME STEP   7, STRESS PERIOD    6
1
  VOLUMETRIC BUDGET FOR ENTIRE MODEL AT END OF TIME STEP       7 IN STRESS PERIOD       6
  ---------------------------------------------------------------------------------------

     CUMULATIVE VOLUMES      L**3       RATES FOR THIS TIME STEP      L**3/T
     ------------------                 ------------------------

           IN:                                      IN:
           ---                                      ---
        MASS STORAGE =          82.4633          MASS STORAGE =           0.5000
    CNST H MASS FLUX =           0.0000      CNST H MASS FLUX =           0.0000
      WELL MASS FLUX =           0.0000        WELL MASS FLUX =           0.0000

            TOTAL IN =          82.4633              TOTAL IN =           0.5000

          OUT:                                     OUT:
          ----                                     ----
        MASS STORAGE =           0.2827          MASS STORAGE =       1.8931E-10
    CNST H MASS FLUX =           0.0000      CNST H MASS FLUX =           0.0000
      WELL MASS FLUX =          82.1806        WELL MASS FLUX =           0.5000

           TOTAL OUT =          82.4633             TOTAL OUT =           0.5000

            IN - OUT =      -2.4301E-11              IN - OUT =      -1.8931E-10

 PERCENT DISCREPANCY =          -0.00     PERCENT DISCREPANCY =          -0.00






          TIME SUMMARY AT END OF TIME STEP         7 IN STRESS PERIOD         6
                    SECONDS     MINUTES      HOURS       DAYS        YEARS
                    -----------------------------------------------------------
   TIME STEP LENGTH 2.98153E+05  4969.2      82.820      3.4509     9.44791E-03
 STRESS PERIOD TIME 1.28967E+06  21494.      358.24      14.927     4.08670E-02
         TOTAL TIME 1.42497E+07 2.37494E+05  3958.2      164.93     0.45154    
1
 -------------------------------------------------------------------------------------
 
 SOLVING FOR HEAD 

 Outer-Iteration  Inner-Iteration  Backtracking  Number of        Incoming       Outgoing  Maximum HeadChange      Maximum Head Change
     Number           Count           Flag       Backtracks       Residual       Residual           Value              Location
        1                             0             0          0.433595E-01     0.433595E-01
        1                6                                                                       -0.212146                     1           GWF-node number
        1                6                                                                       -0.197961                     3           CLN-node number
        2                             0             0          0.233411E-13     0.233411E-13
        2                1                                                                        0.183224E-06               401           GWF-node number
        2                1                                                                       -0.567773E-07                 2           CLN-node number
     2 CALLS TO SPARSE MATRIX SOLVER PACKAGE  IN FLOW TIME STEP       8 STRESS PERIOD       6

 TOTAL OF       2OUTER ITERATIONS
  MAXIMUM CHANGE FOR EACH ITERATION:
   MAX. CHANGE        NODE  MAX. CHANGE        NODE  MAX. CHANGE        NODE  MAX. CHANGE        NODE  MAX. CHANGE        NODE
 ------------------------------------------------------------------------------------------------------------------------------------
  -0.21215    ,          1  0.18322E-06,        401

  MAXIMUM CHANGE FOR CLN NODE AT EACH ITERATION:
   MAX. CHANGE    CLN-CELL  MAX. CHANGE    CLN-CELL  MAX. CHANGE    CLN-CELL  MAX. CHANGE    CLN-CELL  MAX. CHANGE    CLN-CELL
 ------------------------------------------------------------------------------------------------------------------------------------
  -0.19796    ,          3 -0.56777E-07,          2

 HEAD/DRAWDOWN PRINTOUT FLAG = 1     TOTAL BUDGET PRINTOUT FLAG = 1
 CELL-BY-CELL FLOW TERM FLAG = 1
 CONCENTRATION PRINTOUT FLAG = 1

 OUTPUT FLAGS FOR ALL LAYERS ARE THE SAME:
   HEAD    DRAWDOWN  HEAD  DRAWDOWN    CONC    CONC
 PRINTOUT  PRINTOUT  SAVE    SAVE    PRINTOUT  SAVE
 ---------------------------------------------------
     0         0       1       1       0       1
 UBUDSVU SAVING "         STORAGE" ON UNIT  50 AT TIME STEP      8, STRESS PERIOD      6
 UBUDSV SAVING "     CLN STORAGE" ON UNIT 144 AT TIME STEP      8, STRESS PERIOD       6
 UBUDSVU SAVING "   CONSTANT HEAD" ON UNIT  50 AT TIME STEP      8, STRESS PERIOD      6
 UBUDSVU SAVING "   FLOW JA FACE " ON UNIT  50 AT TIME STEP      8, STRESS PERIOD      6
 UBUDSVU SAVING "             CLN" ON UNIT  50 AT TIME STEP      8, STRESS PERIOD      6
 UBUDSVU SAVING "  CLN CONST HEAD" ON UNIT 144 AT TIME STEP      8, STRESS PERIOD      6
 UBUDSVU SAVING "   FLOW CLN FACE" ON UNIT 144 AT TIME STEP      8, STRESS PERIOD      6
 UBUDSVU SAVING "             GWF" ON UNIT 144 AT TIME STEP      8, STRESS PERIOD      6
 UBUDSVU SAVING "           WELLS" ON UNIT  50 AT TIME STEP      8, STRESS PERIOD      6
 UBUDSVU SAVING "           WELLS" ON UNIT 144 AT TIME STEP      8, STRESS PERIOD      6

 HEAD WILL BE SAVED ON UNIT       30 AT END OF TIME STEP        8, STRESS PERIOD        6

 DRAWDOWN WILL BE SAVED ON UNIT   31 AT END OF TIME STEP   8, STRESS PERIOD    6

 CLN HEAD WILL BE SAVED ON UNIT   77 AT END OF TIME STEP   8, STRESS PERIOD    6
1
  VOLUMETRIC BUDGET FOR ENTIRE MODEL AT END OF TIME STEP       8 IN STRESS PERIOD       6
  ---------------------------------------------------------------------------------------

     CUMULATIVE VOLUMES      L**3       RATES FOR THIS TIME STEP      L**3/T
     ------------------                 ------------------------

           IN:                                      IN:
           ---                                      ---
             STORAGE =         845.3385               STORAGE =           5.0000
         CLN STORAGE =           0.0000           CLN STORAGE =           0.0000
       CONSTANT HEAD =           0.0000         CONSTANT HEAD =           0.0000
      CLN CONST HEAD =           0.0000        CLN CONST HEAD =           0.0000
               WELLS =           0.0000                 WELLS =           0.0000

            TOTAL IN =         845.3385              TOTAL IN =           5.0000

          OUT:                                     OUT:
          ----                                     ----
             STORAGE =           0.0000               STORAGE =           0.0000
         CLN STORAGE =           0.0000           CLN STORAGE =           0.0000
       CONSTANT HEAD =           0.0000         CONSTANT HEAD =           0.0000
      CLN CONST HEAD =           0.0000        CLN CONST HEAD =           0.0000
               WELLS =         845.3385                 WELLS =           5.0000

           TOTAL OUT =         845.3385             TOTAL OUT =           5.0000

            IN - OUT =       8.8528E-06              IN - OUT =       4.8504E-08

 PERCENT DISCREPANCY =           0.00     PERCENT DISCREPANCY =           0.00






          TIME SUMMARY AT END OF TIME STEP         8 IN STRESS PERIOD         6
                    SECONDS     MINUTES      HOURS       DAYS        YEARS
                    -----------------------------------------------------------
   TIME STEP LENGTH 3.57784E+05  5963.1      99.384      4.1410     1.13375E-02
 STRESS PERIOD TIME 1.64745E+06  27457.      457.62      19.068     5.22045E-02
         TOTAL TIME 1.46074E+07 2.43457E+05  4057.6      169.07     0.46288    
1
 ------------------------------------------------------------------------------------------------------------
 
 SOLVING FOR TRANSPORT 

 ------------------------------------------------------------------------------------------------------------------------
     1 CALLS TO SPARSE MATRIX SOLVER PACKAGE IN TRANSPORT TIME STEP       8 STRESS PERIOD       6 SPECIES  1

 TOTAL OF       1OUTER ITERATIONS
  MAXIMUM CHANGE FOR EACH ITERATION:
   MAX. CHANGE        NODE  MAX. CHANGE        NODE  MAX. CHANGE        NODE  MAX. CHANGE        NODE  MAX. CHANGE        NODE
 ------------------------------------------------------------------------------------------------------------------------------------
  -0.13742E-10,        191

  MAXIMUM CHANGE FOR CLN NODE AT EACH ITERATION:
   MAX. CHANGE    CLN-CELL  MAX. CHANGE    CLN-CELL  MAX. CHANGE    CLN-CELL  MAX. CHANGE    CLN-CELL  MAX. CHANGE    CLN-CELL
 ------------------------------------------------------------------------------------------------------------------------------------
   0.12380E-08,          2
     TRANSPORT SOLUTION COMPLETE FOR COMPONENT SPECIES NUMBER    1
     ------------------------------------------------------------
 UBUDSVU SAVING "    MASS STORAGE" ON UNIT 145 AT TIME STEP      8, STRESS PERIOD      6
 UBUDSVU SAVING "CLN MASS STORAGE" ON UNIT 145 AT TIME STEP      8, STRESS PERIOD      6
 UBUDSVU SAVING "CNST H MASS FLUX" ON UNIT 145 AT TIME STEP      8, STRESS PERIOD      6
 UBUDSVU SAVING "  WELL MASS FLUX" ON UNIT 145 AT TIME STEP      8, STRESS PERIOD      6

 TRANSPORT SOLUTION COMPLETE FOR ALL SPECIES, SORTING OUTPUT FOR CONCENTRATIONS AND MASS BALANCE
 ----------------------------------------------------------------------------------------------------
     TRANSPORT OUTPUT FOR COMPONENT SPECIES NUMBER    1
     ------------------------------------------------------------

 CONC WILL BE SAVED ON UNIT  132 AT END OF TIME STEP        8, STRESS PERIOD        6

 CLN CONC WILL BE SAVED ON UNIT  188 AT END OF TIME STEP   8, STRESS PERIOD    6
1
  VOLUMETRIC BUDGET FOR ENTIRE MODEL AT END OF TIME STEP       8 IN STRESS PERIOD       6
  ---------------------------------------------------------------------------------------

     CUMULATIVE VOLUMES      L**3       RATES FOR THIS TIME STEP      L**3/T
     ------------------                 ------------------------

           IN:                                      IN:
           ---                                      ---
        MASS STORAGE =          84.5339          MASS STORAGE =           0.5000
    CNST H MASS FLUX =           0.0000      CNST H MASS FLUX =           0.0000
      WELL MASS FLUX =           0.0000        WELL MASS FLUX =           0.0000

            TOTAL IN =          84.5339              TOTAL IN =           0.5000

          OUT:                                     OUT:
          ----                                     ----
        MASS STORAGE =           0.2827          MASS STORAGE =       4.5751E-10
    CNST H MASS FLUX =           0.0000      CNST H MASS FLUX =           0.0000
      WELL MASS FLUX =          84.2511        WELL MASS FLUX =           0.5000

           TOTAL OUT =          84.5339             TOTAL OUT =           0.5000

            IN - OUT =      -3.1818E-11              IN - OUT =      -4.5751E-10

 PERCENT DISCREPANCY =          -0.00     PERCENT DISCREPANCY =          -0.00






          TIME SUMMARY AT END OF TIME STEP         8 IN STRESS PERIOD         6
                    SECONDS     MINUTES      HOURS       DAYS        YEARS
                    -----------------------------------------------------------
   TIME STEP LENGTH 3.57784E+05  5963.1      99.384      4.1410     1.13375E-02
 STRESS PERIOD TIME 1.64745E+06  27457.      457.62      19.068     5.22045E-02
         TOTAL TIME 1.46074E+07 2.43457E+05  4057.6      169.07     0.46288    
1
 -------------------------------------------------------------------------------------
 
 SOLVING FOR HEAD 

 Outer-Iteration  Inner-Iteration  Backtracking  Number of        Incoming       Outgoing  Maximum HeadChange      Maximum Head Change
     Number           Count           Flag       Backtracks       Residual       Residual           Value              Location
        1                             0             0          0.432056E-01     0.432056E-01
        1                6                                                                       -0.253757                     1           GWF-node number
        1                6                                                                       -0.236877                     3           CLN-node number
        2                             0             0          0.111262E-12     0.111262E-12
        2                1                                                                        0.497171E-06               401           GWF-node number
        2                1                                                                        0.213479E-06                 3           CLN-node number
     2 CALLS TO SPARSE MATRIX SOLVER PACKAGE  IN FLOW TIME STEP       9 STRESS PERIOD       6

 TOTAL OF       2OUTER ITERATIONS
  MAXIMUM CHANGE FOR EACH ITERATION:
   MAX. CHANGE        NODE  MAX. CHANGE        NODE  MAX. CHANGE        NODE  MAX. CHANGE        NODE  MAX. CHANGE        NODE
 ------------------------------------------------------------------------------------------------------------------------------------
  -0.25376    ,          1  0.49717E-06,        401

  MAXIMUM CHANGE FOR CLN NODE AT EACH ITERATION:
   MAX. CHANGE    CLN-CELL  MAX. CHANGE    CLN-CELL  MAX. CHANGE    CLN-CELL  MAX. CHANGE    CLN-CELL  MAX. CHANGE    CLN-CELL
 ------------------------------------------------------------------------------------------------------------------------------------
  -0.23688    ,          3  0.21348E-06,          3

 HEAD/DRAWDOWN PRINTOUT FLAG = 1     TOTAL BUDGET PRINTOUT FLAG = 1
 CELL-BY-CELL FLOW TERM FLAG = 1
 CONCENTRATION PRINTOUT FLAG = 1

 OUTPUT FLAGS FOR ALL LAYERS ARE THE SAME:
   HEAD    DRAWDOWN  HEAD  DRAWDOWN    CONC    CONC
 PRINTOUT  PRINTOUT  SAVE    SAVE    PRINTOUT  SAVE
 ---------------------------------------------------
     0         0       1       1       0       1
 UBUDSVU SAVING "         STORAGE" ON UNIT  50 AT TIME STEP      9, STRESS PERIOD      6
 UBUDSV SAVING "     CLN STORAGE" ON UNIT 144 AT TIME STEP      9, STRESS PERIOD       6
 UBUDSVU SAVING "   CONSTANT HEAD" ON UNIT  50 AT TIME STEP      9, STRESS PERIOD      6
 UBUDSVU SAVING "   FLOW JA FACE " ON UNIT  50 AT TIME STEP      9, STRESS PERIOD      6
 UBUDSVU SAVING "             CLN" ON UNIT  50 AT TIME STEP      9, STRESS PERIOD      6
 UBUDSVU SAVING "  CLN CONST HEAD" ON UNIT 144 AT TIME STEP      9, STRESS PERIOD      6
 UBUDSVU SAVING "   FLOW CLN FACE" ON UNIT 144 AT TIME STEP      9, STRESS PERIOD      6
 UBUDSVU SAVING "             GWF" ON UNIT 144 AT TIME STEP      9, STRESS PERIOD      6
 UBUDSVU SAVING "           WELLS" ON UNIT  50 AT TIME STEP      9, STRESS PERIOD      6
 UBUDSVU SAVING "           WELLS" ON UNIT 144 AT TIME STEP      9, STRESS PERIOD      6

 HEAD WILL BE SAVED ON UNIT       30 AT END OF TIME STEP        9, STRESS PERIOD        6

 DRAWDOWN WILL BE SAVED ON UNIT   31 AT END OF TIME STEP   9, STRESS PERIOD    6

 CLN HEAD WILL BE SAVED ON UNIT   77 AT END OF TIME STEP   9, STRESS PERIOD    6
1
  VOLUMETRIC BUDGET FOR ENTIRE MODEL AT END OF TIME STEP       9 IN STRESS PERIOD       6
  ---------------------------------------------------------------------------------------

     CUMULATIVE VOLUMES      L**3       RATES FOR THIS TIME STEP      L**3/T
     ------------------                 ------------------------

           IN:                                      IN:
           ---                                      ---
             STORAGE =         870.1846               STORAGE =           5.0000
         CLN STORAGE =           0.0000           CLN STORAGE =           0.0000
       CONSTANT HEAD =           0.0000         CONSTANT HEAD =           0.0000
      CLN CONST HEAD =           0.0000        CLN CONST HEAD =           0.0000
               WELLS =           0.0000                 WELLS =           0.0000

            TOTAL IN =         870.1846              TOTAL IN =           5.0000

          OUT:                                     OUT:
          ----                                     ----
             STORAGE =           0.0000               STORAGE =           0.0000
         CLN STORAGE =           0.0000           CLN STORAGE =           0.0000
       CONSTANT HEAD =           0.0000         CONSTANT HEAD =           0.0000
      CLN CONST HEAD =           0.0000        CLN CONST HEAD =           0.0000
               WELLS =         870.1846                 WELLS =           5.0000

           TOTAL OUT =         870.1846             TOTAL OUT =           5.0000

            IN - OUT =       8.9400E-06              IN - OUT =       1.7544E-08

 PERCENT DISCREPANCY =           0.00     PERCENT DISCREPANCY =           0.00






          TIME SUMMARY AT END OF TIME STEP         9 IN STRESS PERIOD         6
                    SECONDS     MINUTES      HOURS       DAYS        YEARS
                    -----------------------------------------------------------
   TIME STEP LENGTH 4.29341E+05  7155.7      119.26      4.9692     1.36050E-02
 STRESS PERIOD TIME 2.07679E+06  34613.      576.89      24.037     6.58095E-02
         TOTAL TIME 1.50368E+07 2.50613E+05  4176.9      174.04     0.47649    
1
 ------------------------------------------------------------------------------------------------------------
 
 SOLVING FOR TRANSPORT 

 ------------------------------------------------------------------------------------------------------------------------
     1 CALLS TO SPARSE MATRIX SOLVER PACKAGE IN TRANSPORT TIME STEP       9 STRESS PERIOD       6 SPECIES  1

 TOTAL OF       1OUTER ITERATIONS
  MAXIMUM CHANGE FOR EACH ITERATION:
   MAX. CHANGE        NODE  MAX. CHANGE        NODE  MAX. CHANGE        NODE  MAX. CHANGE        NODE  MAX. CHANGE        NODE
 ------------------------------------------------------------------------------------------------------------------------------------
   0.37857E-10,        191

  MAXIMUM CHANGE FOR CLN NODE AT EACH ITERATION:
   MAX. CHANGE    CLN-CELL  MAX. CHANGE    CLN-CELL  MAX. CHANGE    CLN-CELL  MAX. CHANGE    CLN-CELL  MAX. CHANGE    CLN-CELL
 ------------------------------------------------------------------------------------------------------------------------------------
  -0.15056E-08,          2
     TRANSPORT SOLUTION COMPLETE FOR COMPONENT SPECIES NUMBER    1
     ------------------------------------------------------------
 UBUDSVU SAVING "    MASS STORAGE" ON UNIT 145 AT TIME STEP      9, STRESS PERIOD      6
 UBUDSVU SAVING "CLN MASS STORAGE" ON UNIT 145 AT TIME STEP      9, STRESS PERIOD      6
 UBUDSVU SAVING "CNST H MASS FLUX" ON UNIT 145 AT TIME STEP      9, STRESS PERIOD      6
 UBUDSVU SAVING "  WELL MASS FLUX" ON UNIT 145 AT TIME STEP      9, STRESS PERIOD      6

 TRANSPORT SOLUTION COMPLETE FOR ALL SPECIES, SORTING OUTPUT FOR CONCENTRATIONS AND MASS BALANCE
 ----------------------------------------------------------------------------------------------------
     TRANSPORT OUTPUT FOR COMPONENT SPECIES NUMBER    1
     ------------------------------------------------------------

 CONC WILL BE SAVED ON UNIT  132 AT END OF TIME STEP        9, STRESS PERIOD        6

 CLN CONC WILL BE SAVED ON UNIT  188 AT END OF TIME STEP   9, STRESS PERIOD    6
1
  VOLUMETRIC BUDGET FOR ENTIRE MODEL AT END OF TIME STEP       9 IN STRESS PERIOD       6
  ---------------------------------------------------------------------------------------

     CUMULATIVE VOLUMES      L**3       RATES FOR THIS TIME STEP      L**3/T
     ------------------                 ------------------------

           IN:                                      IN:
           ---                                      ---
        MASS STORAGE =          87.0185          MASS STORAGE =           0.5000
    CNST H MASS FLUX =           0.0000      CNST H MASS FLUX =           0.0000
      WELL MASS FLUX =           0.0000        WELL MASS FLUX =           0.0000

            TOTAL IN =          87.0185              TOTAL IN =           0.5000

          OUT:                                     OUT:
          ----                                     ----
        MASS STORAGE =           0.2827          MASS STORAGE =           0.0000
    CNST H MASS FLUX =           0.0000      CNST H MASS FLUX =           0.0000
      WELL MASS FLUX =          86.7357        WELL MASS FLUX =           0.5000

           TOTAL OUT =          87.0185             TOTAL OUT =           0.5000

            IN - OUT =      -1.4310E-11              IN - OUT =           0.0000

 PERCENT DISCREPANCY =          -0.00     PERCENT DISCREPANCY =           0.00






          TIME SUMMARY AT END OF TIME STEP         9 IN STRESS PERIOD         6
                    SECONDS     MINUTES      HOURS       DAYS        YEARS
                    -----------------------------------------------------------
   TIME STEP LENGTH 4.29341E+05  7155.7      119.26      4.9692     1.36050E-02
 STRESS PERIOD TIME 2.07679E+06  34613.      576.89      24.037     6.58095E-02
         TOTAL TIME 1.50368E+07 2.50613E+05  4176.9      174.04     0.47649    
1
 -------------------------------------------------------------------------------------
 
 SOLVING FOR HEAD 

 Outer-Iteration  Inner-Iteration  Backtracking  Number of        Incoming       Outgoing  Maximum HeadChange      Maximum Head Change
     Number           Count           Flag       Backtracks       Residual       Residual           Value              Location
        1                             0             0          0.430238E-01     0.430238E-01
        1                7                                                                       -0.303367                     1           GWF-node number
        1                7                                                                       -0.283301                     1           CLN-node number
        2                             0             0          0.436961E-14     0.436961E-14
        2                1                                                                       -0.676989E-07               417           GWF-node number
        2                1                                                                       -0.227515E-07                 2           CLN-node number
     2 CALLS TO SPARSE MATRIX SOLVER PACKAGE  IN FLOW TIME STEP      10 STRESS PERIOD       6

 TOTAL OF       2OUTER ITERATIONS
  MAXIMUM CHANGE FOR EACH ITERATION:
   MAX. CHANGE        NODE  MAX. CHANGE        NODE  MAX. CHANGE        NODE  MAX. CHANGE        NODE  MAX. CHANGE        NODE
 ------------------------------------------------------------------------------------------------------------------------------------
  -0.30337    ,          1 -0.67699E-07,        417

  MAXIMUM CHANGE FOR CLN NODE AT EACH ITERATION:
   MAX. CHANGE    CLN-CELL  MAX. CHANGE    CLN-CELL  MAX. CHANGE    CLN-CELL  MAX. CHANGE    CLN-CELL  MAX. CHANGE    CLN-CELL
 ------------------------------------------------------------------------------------------------------------------------------------
  -0.28330    ,          1 -0.22752E-07,          2

 HEAD/DRAWDOWN PRINTOUT FLAG = 1     TOTAL BUDGET PRINTOUT FLAG = 1
 CELL-BY-CELL FLOW TERM FLAG = 1
 CONCENTRATION PRINTOUT FLAG = 1

 OUTPUT FLAGS FOR ALL LAYERS ARE THE SAME:
   HEAD    DRAWDOWN  HEAD  DRAWDOWN    CONC    CONC
 PRINTOUT  PRINTOUT  SAVE    SAVE    PRINTOUT  SAVE
 ---------------------------------------------------
     0         0       1       1       0       1
 UBUDSVU SAVING "         STORAGE" ON UNIT  50 AT TIME STEP     10, STRESS PERIOD      6
 UBUDSV SAVING "     CLN STORAGE" ON UNIT 144 AT TIME STEP     10, STRESS PERIOD       6
 UBUDSVU SAVING "   CONSTANT HEAD" ON UNIT  50 AT TIME STEP     10, STRESS PERIOD      6
 UBUDSVU SAVING "   FLOW JA FACE " ON UNIT  50 AT TIME STEP     10, STRESS PERIOD      6
 UBUDSVU SAVING "             CLN" ON UNIT  50 AT TIME STEP     10, STRESS PERIOD      6
 UBUDSVU SAVING "  CLN CONST HEAD" ON UNIT 144 AT TIME STEP     10, STRESS PERIOD      6
 UBUDSVU SAVING "   FLOW CLN FACE" ON UNIT 144 AT TIME STEP     10, STRESS PERIOD      6
 UBUDSVU SAVING "             GWF" ON UNIT 144 AT TIME STEP     10, STRESS PERIOD      6
 UBUDSVU SAVING "           WELLS" ON UNIT  50 AT TIME STEP     10, STRESS PERIOD      6
 UBUDSVU SAVING "           WELLS" ON UNIT 144 AT TIME STEP     10, STRESS PERIOD      6

 HEAD WILL BE SAVED ON UNIT       30 AT END OF TIME STEP       10, STRESS PERIOD        6

 DRAWDOWN WILL BE SAVED ON UNIT   31 AT END OF TIME STEP  10, STRESS PERIOD    6

 CLN HEAD WILL BE SAVED ON UNIT   77 AT END OF TIME STEP  10, STRESS PERIOD    6
1
  VOLUMETRIC BUDGET FOR ENTIRE MODEL AT END OF TIME STEP      10 IN STRESS PERIOD       6
  ---------------------------------------------------------------------------------------

     CUMULATIVE VOLUMES      L**3       RATES FOR THIS TIME STEP      L**3/T
     ------------------                 ------------------------

           IN:                                      IN:
           ---                                      ---
             STORAGE =         900.0000               STORAGE =           5.0000
         CLN STORAGE =           0.0000           CLN STORAGE =           0.0000
       CONSTANT HEAD =           0.0000         CONSTANT HEAD =           0.0000
      CLN CONST HEAD =           0.0000        CLN CONST HEAD =           0.0000
               WELLS =           0.0000                 WELLS =           0.0000

            TOTAL IN =         900.0000              TOTAL IN =           5.0000

          OUT:                                     OUT:
          ----                                     ----
             STORAGE =           0.0000               STORAGE =           0.0000
         CLN STORAGE =           0.0000           CLN STORAGE =           0.0000
       CONSTANT HEAD =           0.0000         CONSTANT HEAD =           0.0000
      CLN CONST HEAD =           0.0000        CLN CONST HEAD =           0.0000
               WELLS =         900.0000                 WELLS =           5.0000

           TOTAL OUT =         900.0000             TOTAL OUT =           5.0000

            IN - OUT =       9.3141E-06              IN - OUT =       6.2744E-08

 PERCENT DISCREPANCY =           0.00     PERCENT DISCREPANCY =           0.00






          TIME SUMMARY AT END OF TIME STEP        10 IN STRESS PERIOD         6
                    SECONDS     MINUTES      HOURS       DAYS        YEARS
                    -----------------------------------------------------------
   TIME STEP LENGTH 5.15209E+05  8586.8      143.11      5.9631     1.63260E-02
 STRESS PERIOD TIME 2.59200E+06  43200.      720.00      30.000     8.21355E-02
         TOTAL TIME 1.55520E+07 2.59200E+05  4320.0      180.00     0.49281    
1
 ------------------------------------------------------------------------------------------------------------
 
 SOLVING FOR TRANSPORT 

 ------------------------------------------------------------------------------------------------------------------------
     1 CALLS TO SPARSE MATRIX SOLVER PACKAGE IN TRANSPORT TIME STEP      10 STRESS PERIOD       6 SPECIES  1

 TOTAL OF       1OUTER ITERATIONS
  MAXIMUM CHANGE FOR EACH ITERATION:
   MAX. CHANGE        NODE  MAX. CHANGE        NODE  MAX. CHANGE        NODE  MAX. CHANGE        NODE  MAX. CHANGE        NODE
 ------------------------------------------------------------------------------------------------------------------------------------
  -0.11068E-10,        191

  MAXIMUM CHANGE FOR CLN NODE AT EACH ITERATION:
   MAX. CHANGE    CLN-CELL  MAX. CHANGE    CLN-CELL  MAX. CHANGE    CLN-CELL  MAX. CHANGE    CLN-CELL  MAX. CHANGE    CLN-CELL
 ------------------------------------------------------------------------------------------------------------------------------------
   0.19678E-08,          2
     TRANSPORT SOLUTION COMPLETE FOR COMPONENT SPECIES NUMBER    1
     ------------------------------------------------------------
 UBUDSVU SAVING "    MASS STORAGE" ON UNIT 145 AT TIME STEP     10, STRESS PERIOD      6
 UBUDSVU SAVING "CLN MASS STORAGE" ON UNIT 145 AT TIME STEP     10, STRESS PERIOD      6
 UBUDSVU SAVING "CNST H MASS FLUX" ON UNIT 145 AT TIME STEP     10, STRESS PERIOD      6
 UBUDSVU SAVING "  WELL MASS FLUX" ON UNIT 145 AT TIME STEP     10, STRESS PERIOD      6

 TRANSPORT SOLUTION COMPLETE FOR ALL SPECIES, SORTING OUTPUT FOR CONCENTRATIONS AND MASS BALANCE
 ----------------------------------------------------------------------------------------------------
     TRANSPORT OUTPUT FOR COMPONENT SPECIES NUMBER    1
     ------------------------------------------------------------

 CONC WILL BE SAVED ON UNIT  132 AT END OF TIME STEP       10, STRESS PERIOD        6

 CLN CONC WILL BE SAVED ON UNIT  188 AT END OF TIME STEP  10, STRESS PERIOD    6
1
  VOLUMETRIC BUDGET FOR ENTIRE MODEL AT END OF TIME STEP      10 IN STRESS PERIOD       6
  ---------------------------------------------------------------------------------------

     CUMULATIVE VOLUMES      L**3       RATES FOR THIS TIME STEP      L**3/T
     ------------------                 ------------------------

           IN:                                      IN:
           ---                                      ---
        MASS STORAGE =          90.0000          MASS STORAGE =           0.5000
    CNST H MASS FLUX =           0.0000      CNST H MASS FLUX =           0.0000
      WELL MASS FLUX =           0.0000        WELL MASS FLUX =           0.0000

            TOTAL IN =          90.0000              TOTAL IN =           0.5000

          OUT:                                     OUT:
          ----                                     ----
        MASS STORAGE =           0.2827          MASS STORAGE =       3.0108E-10
    CNST H MASS FLUX =           0.0000      CNST H MASS FLUX =           0.0000
      WELL MASS FLUX =          89.7173        WELL MASS FLUX =           0.5000

           TOTAL OUT =          90.0000             TOTAL OUT =           0.5000

            IN - OUT =      -2.8763E-11              IN - OUT =      -3.0108E-10

 PERCENT DISCREPANCY =          -0.00     PERCENT DISCREPANCY =          -0.00






          TIME SUMMARY AT END OF TIME STEP        10 IN STRESS PERIOD         6
                    SECONDS     MINUTES      HOURS       DAYS        YEARS
                    -----------------------------------------------------------
   TIME STEP LENGTH 5.15209E+05  8586.8      143.11      5.9631     1.63260E-02
 STRESS PERIOD TIME 2.59200E+06  43200.      720.00      30.000     8.21355E-02
         TOTAL TIME 1.55520E+07 2.59200E+05  4320.0      180.00     0.49281    
1
1
                            STRESS PERIOD NO.    7, LENGTH =   30.00000    
                            -----------------------------------------------

                              NUMBER OF TIME STEPS =        10

                               MULTIPLIER FOR DELT =     1.200

                            INITIAL TIME STEP SIZE =   1.155682    

 WEL -- WELL PACKAGE, VERSION 7, 5/2/2005 INPUT READ FROM UNIT   12

 WELL NO.  CLN-NODE       STRESS FACTOR         C01             
 ---------------------------------------------------------------
        1            3      -5.000           0.000           0.000    

      1 WELL 
 -------------------------------------------------------------------------------------
 
 SOLVING FOR HEAD 

 Outer-Iteration  Inner-Iteration  Backtracking  Number of        Incoming       Outgoing  Maximum HeadChange      Maximum Head Change
     Number           Count           Flag       Backtracks       Residual       Residual           Value              Location
        1                             0             0          0.428096E-01     0.428096E-01
        1                5                                                                       -0.587519E-01                 1           GWF-node number
        1                5                                                                       -0.548700E-01                 1           CLN-node number
        2                             0             0          0.157740E-14     0.157740E-14
        2                1                                                                       -0.136699E-07               190           GWF-node number
        2                1                                                                       -0.366971E-07                 1           CLN-node number


     2 CALLS TO SPARSE MATRIX SOLVER PACKAGE  IN FLOW TIME STEP       1 STRESS PERIOD       7

 TOTAL OF       2OUTER ITERATIONS
  MAXIMUM CHANGE FOR EACH ITERATION:
   MAX. CHANGE        NODE  MAX. CHANGE        NODE  MAX. CHANGE        NODE  MAX. CHANGE        NODE  MAX. CHANGE        NODE
 ------------------------------------------------------------------------------------------------------------------------------------
  -0.58752E-01,          1 -0.13670E-07,        190

  MAXIMUM CHANGE FOR CLN NODE AT EACH ITERATION:
   MAX. CHANGE    CLN-CELL  MAX. CHANGE    CLN-CELL  MAX. CHANGE    CLN-CELL  MAX. CHANGE    CLN-CELL  MAX. CHANGE    CLN-CELL
 ------------------------------------------------------------------------------------------------------------------------------------
  -0.54870E-01,          1 -0.36697E-07,          1

 HEAD/DRAWDOWN PRINTOUT FLAG = 1     TOTAL BUDGET PRINTOUT FLAG = 1
 CELL-BY-CELL FLOW TERM FLAG = 1
 CONCENTRATION PRINTOUT FLAG = 1

 OUTPUT FLAGS FOR ALL LAYERS ARE THE SAME:
   HEAD    DRAWDOWN  HEAD  DRAWDOWN    CONC    CONC
 PRINTOUT  PRINTOUT  SAVE    SAVE    PRINTOUT  SAVE
 ---------------------------------------------------
     0         0       1       1       0       1
 UBUDSVU SAVING "         STORAGE" ON UNIT  50 AT TIME STEP      1, STRESS PERIOD      7
 UBUDSV SAVING "     CLN STORAGE" ON UNIT 144 AT TIME STEP      1, STRESS PERIOD       7
 UBUDSVU SAVING "   CONSTANT HEAD" ON UNIT  50 AT TIME STEP      1, STRESS PERIOD      7
 UBUDSVU SAVING "   FLOW JA FACE " ON UNIT  50 AT TIME STEP      1, STRESS PERIOD      7
 UBUDSVU SAVING "             CLN" ON UNIT  50 AT TIME STEP      1, STRESS PERIOD      7
 UBUDSVU SAVING "  CLN CONST HEAD" ON UNIT 144 AT TIME STEP      1, STRESS PERIOD      7
 UBUDSVU SAVING "   FLOW CLN FACE" ON UNIT 144 AT TIME STEP      1, STRESS PERIOD      7
 UBUDSVU SAVING "             GWF" ON UNIT 144 AT TIME STEP      1, STRESS PERIOD      7
 UBUDSVU SAVING "           WELLS" ON UNIT  50 AT TIME STEP      1, STRESS PERIOD      7
 UBUDSVU SAVING "           WELLS" ON UNIT 144 AT TIME STEP      1, STRESS PERIOD      7

 HEAD WILL BE SAVED ON UNIT       30 AT END OF TIME STEP        1, STRESS PERIOD        7

 DRAWDOWN WILL BE SAVED ON UNIT   31 AT END OF TIME STEP   1, STRESS PERIOD    7

 CLN HEAD WILL BE SAVED ON UNIT   77 AT END OF TIME STEP   1, STRESS PERIOD    7
1
  VOLUMETRIC BUDGET FOR ENTIRE MODEL AT END OF TIME STEP       1 IN STRESS PERIOD       7
  ---------------------------------------------------------------------------------------

     CUMULATIVE VOLUMES      L**3       RATES FOR THIS TIME STEP      L**3/T
     ------------------                 ------------------------

           IN:                                      IN:
           ---                                      ---
             STORAGE =         905.7784               STORAGE =           5.0000
         CLN STORAGE =           0.0000           CLN STORAGE =           0.0000
       CONSTANT HEAD =           0.0000         CONSTANT HEAD =           0.0000
      CLN CONST HEAD =           0.0000        CLN CONST HEAD =           0.0000
               WELLS =           0.0000                 WELLS =           0.0000

            TOTAL IN =         905.7784              TOTAL IN =           5.0000

          OUT:                                     OUT:
          ----                                     ----
             STORAGE =           0.0000               STORAGE =           0.0000
         CLN STORAGE =           0.0000           CLN STORAGE =           0.0000
       CONSTANT HEAD =           0.0000         CONSTANT HEAD =           0.0000
      CLN CONST HEAD =           0.0000        CLN CONST HEAD =           0.0000
               WELLS =         905.7784                 WELLS =           5.0000

           TOTAL OUT =         905.7784             TOTAL OUT =           5.0000

            IN - OUT =       9.3777E-06              IN - OUT =       5.4999E-08

 PERCENT DISCREPANCY =           0.00     PERCENT DISCREPANCY =           0.00






          TIME SUMMARY AT END OF TIME STEP         1 IN STRESS PERIOD         7
                    SECONDS     MINUTES      HOURS       DAYS        YEARS
                    -----------------------------------------------------------
   TIME STEP LENGTH  99851.      1664.2      27.736      1.1557     3.16409E-03
 STRESS PERIOD TIME  99851.      1664.2      27.736      1.1557     3.16409E-03
         TOTAL TIME 1.56518E+07 2.60864E+05  4347.7      181.16     0.49598    
1
 ------------------------------------------------------------------------------------------------------------
 
 SOLVING FOR TRANSPORT 

 ------------------------------------------------------------------------------------------------------------------------
     1 CALLS TO SPARSE MATRIX SOLVER PACKAGE IN TRANSPORT TIME STEP       1 STRESS PERIOD       7 SPECIES  1

 TOTAL OF       1OUTER ITERATIONS
  MAXIMUM CHANGE FOR EACH ITERATION:
   MAX. CHANGE        NODE  MAX. CHANGE        NODE  MAX. CHANGE        NODE  MAX. CHANGE        NODE  MAX. CHANGE        NODE
 ------------------------------------------------------------------------------------------------------------------------------------
  -0.25891E-11,        191

  MAXIMUM CHANGE FOR CLN NODE AT EACH ITERATION:
   MAX. CHANGE    CLN-CELL  MAX. CHANGE    CLN-CELL  MAX. CHANGE    CLN-CELL  MAX. CHANGE    CLN-CELL  MAX. CHANGE    CLN-CELL
 ------------------------------------------------------------------------------------------------------------------------------------
  -0.56380E-09,          2
     TRANSPORT SOLUTION COMPLETE FOR COMPONENT SPECIES NUMBER    1
     ------------------------------------------------------------
 UBUDSVU SAVING "    MASS STORAGE" ON UNIT 145 AT TIME STEP      1, STRESS PERIOD      7
 UBUDSVU SAVING "CLN MASS STORAGE" ON UNIT 145 AT TIME STEP      1, STRESS PERIOD      7
 UBUDSVU SAVING "CNST H MASS FLUX" ON UNIT 145 AT TIME STEP      1, STRESS PERIOD      7
 UBUDSVU SAVING "  WELL MASS FLUX" ON UNIT 145 AT TIME STEP      1, STRESS PERIOD      7

 TRANSPORT SOLUTION COMPLETE FOR ALL SPECIES, SORTING OUTPUT FOR CONCENTRATIONS AND MASS BALANCE
 ----------------------------------------------------------------------------------------------------
     TRANSPORT OUTPUT FOR COMPONENT SPECIES NUMBER    1
     ------------------------------------------------------------

 CONC WILL BE SAVED ON UNIT  132 AT END OF TIME STEP        1, STRESS PERIOD        7

 CLN CONC WILL BE SAVED ON UNIT  188 AT END OF TIME STEP   1, STRESS PERIOD    7
1
  VOLUMETRIC BUDGET FOR ENTIRE MODEL AT END OF TIME STEP       1 IN STRESS PERIOD       7
  ---------------------------------------------------------------------------------------

     CUMULATIVE VOLUMES      L**3       RATES FOR THIS TIME STEP      L**3/T
     ------------------                 ------------------------

           IN:                                      IN:
           ---                                      ---
        MASS STORAGE =          90.5778          MASS STORAGE =           0.5000
    CNST H MASS FLUX =           0.0000      CNST H MASS FLUX =           0.0000
      WELL MASS FLUX =           0.0000        WELL MASS FLUX =           0.0000

            TOTAL IN =          90.5778              TOTAL IN =           0.5000

          OUT:                                     OUT:
          ----                                     ----
        MASS STORAGE =           0.2827          MASS STORAGE =       4.1444E-10
    CNST H MASS FLUX =           0.0000      CNST H MASS FLUX =           0.0000
      WELL MASS FLUX =          90.2951        WELL MASS FLUX =           0.5000

           TOTAL OUT =          90.5778             TOTAL OUT =           0.5000

            IN - OUT =      -2.8820E-11              IN - OUT =      -4.1444E-10

 PERCENT DISCREPANCY =          -0.00     PERCENT DISCREPANCY =          -0.00






          TIME SUMMARY AT END OF TIME STEP         1 IN STRESS PERIOD         7
                    SECONDS     MINUTES      HOURS       DAYS        YEARS
                    -----------------------------------------------------------
   TIME STEP LENGTH  99851.      1664.2      27.736      1.1557     3.16409E-03
 STRESS PERIOD TIME  99851.      1664.2      27.736      1.1557     3.16409E-03
         TOTAL TIME 1.56518E+07 2.60864E+05  4347.7      181.16     0.49598    
1
 -------------------------------------------------------------------------------------
 
 SOLVING FOR HEAD 

 Outer-Iteration  Inner-Iteration  Backtracking  Number of        Incoming       Outgoing  Maximum HeadChange      Maximum Head Change
     Number           Count           Flag       Backtracks       Residual       Residual           Value              Location
        1                             0             0          0.427684E-01     0.427684E-01
        1                5                                                                       -0.704413E-01                 1           GWF-node number
        1                5                                                                       -0.657931E-01                 3           CLN-node number
        2                             0             0          0.335783E-14     0.335783E-14
        2                1                                                                        0.478063E-07               190           GWF-node number
        2                1                                                                        0.135302E-06                 2           CLN-node number
     2 CALLS TO SPARSE MATRIX SOLVER PACKAGE  IN FLOW TIME STEP       2 STRESS PERIOD       7

 TOTAL OF       2OUTER ITERATIONS
  MAXIMUM CHANGE FOR EACH ITERATION:
   MAX. CHANGE        NODE  MAX. CHANGE        NODE  MAX. CHANGE        NODE  MAX. CHANGE        NODE  MAX. CHANGE        NODE
 ------------------------------------------------------------------------------------------------------------------------------------
  -0.70441E-01,          1  0.47806E-07,        190

  MAXIMUM CHANGE FOR CLN NODE AT EACH ITERATION:
   MAX. CHANGE    CLN-CELL  MAX. CHANGE    CLN-CELL  MAX. CHANGE    CLN-CELL  MAX. CHANGE    CLN-CELL  MAX. CHANGE    CLN-CELL
 ------------------------------------------------------------------------------------------------------------------------------------
  -0.65793E-01,          3  0.13530E-06,          2

 HEAD/DRAWDOWN PRINTOUT FLAG = 1     TOTAL BUDGET PRINTOUT FLAG = 1
 CELL-BY-CELL FLOW TERM FLAG = 1
 CONCENTRATION PRINTOUT FLAG = 1

 OUTPUT FLAGS FOR ALL LAYERS ARE THE SAME:
   HEAD    DRAWDOWN  HEAD  DRAWDOWN    CONC    CONC
 PRINTOUT  PRINTOUT  SAVE    SAVE    PRINTOUT  SAVE
 ---------------------------------------------------
     0         0       1       1       0       1
 UBUDSVU SAVING "         STORAGE" ON UNIT  50 AT TIME STEP      2, STRESS PERIOD      7
 UBUDSV SAVING "     CLN STORAGE" ON UNIT 144 AT TIME STEP      2, STRESS PERIOD       7
 UBUDSVU SAVING "   CONSTANT HEAD" ON UNIT  50 AT TIME STEP      2, STRESS PERIOD      7
 UBUDSVU SAVING "   FLOW JA FACE " ON UNIT  50 AT TIME STEP      2, STRESS PERIOD      7
 UBUDSVU SAVING "             CLN" ON UNIT  50 AT TIME STEP      2, STRESS PERIOD      7
 UBUDSVU SAVING "  CLN CONST HEAD" ON UNIT 144 AT TIME STEP      2, STRESS PERIOD      7
 UBUDSVU SAVING "   FLOW CLN FACE" ON UNIT 144 AT TIME STEP      2, STRESS PERIOD      7
 UBUDSVU SAVING "             GWF" ON UNIT 144 AT TIME STEP      2, STRESS PERIOD      7
 UBUDSVU SAVING "           WELLS" ON UNIT  50 AT TIME STEP      2, STRESS PERIOD      7
 UBUDSVU SAVING "           WELLS" ON UNIT 144 AT TIME STEP      2, STRESS PERIOD      7

 HEAD WILL BE SAVED ON UNIT       30 AT END OF TIME STEP        2, STRESS PERIOD        7

 DRAWDOWN WILL BE SAVED ON UNIT   31 AT END OF TIME STEP   2, STRESS PERIOD    7

 CLN HEAD WILL BE SAVED ON UNIT   77 AT END OF TIME STEP   2, STRESS PERIOD    7
1
  VOLUMETRIC BUDGET FOR ENTIRE MODEL AT END OF TIME STEP       2 IN STRESS PERIOD       7
  ---------------------------------------------------------------------------------------

     CUMULATIVE VOLUMES      L**3       RATES FOR THIS TIME STEP      L**3/T
     ------------------                 ------------------------

           IN:                                      IN:
           ---                                      ---
             STORAGE =         912.7125               STORAGE =           5.0000
         CLN STORAGE =           0.0000           CLN STORAGE =           0.0000
       CONSTANT HEAD =           0.0000         CONSTANT HEAD =           0.0000
      CLN CONST HEAD =           0.0000        CLN CONST HEAD =           0.0000
               WELLS =           0.0000                 WELLS =           0.0000

            TOTAL IN =         912.7125              TOTAL IN =           5.0000

          OUT:                                     OUT:
          ----                                     ----
             STORAGE =           0.0000               STORAGE =           0.0000
         CLN STORAGE =           0.0000           CLN STORAGE =           0.0000
       CONSTANT HEAD =           0.0000         CONSTANT HEAD =           0.0000
      CLN CONST HEAD =           0.0000        CLN CONST HEAD =           0.0000
               WELLS =         912.7125                 WELLS =           5.0000

           TOTAL OUT =         912.7125             TOTAL OUT =           5.0000

            IN - OUT =       9.4181E-06              IN - OUT =       2.9105E-08

 PERCENT DISCREPANCY =           0.00     PERCENT DISCREPANCY =           0.00






          TIME SUMMARY AT END OF TIME STEP         2 IN STRESS PERIOD         7
                    SECONDS     MINUTES      HOURS       DAYS        YEARS
                    -----------------------------------------------------------
   TIME STEP LENGTH 1.19821E+05  1997.0      33.284      1.3868     3.79690E-03
 STRESS PERIOD TIME 2.19672E+05  3661.2      61.020      2.5425     6.96099E-03
         TOTAL TIME 1.57717E+07 2.62861E+05  4381.0      182.54     0.49977    
1
 ------------------------------------------------------------------------------------------------------------
 
 SOLVING FOR TRANSPORT 

 ------------------------------------------------------------------------------------------------------------------------
     1 CALLS TO SPARSE MATRIX SOLVER PACKAGE IN TRANSPORT TIME STEP       2 STRESS PERIOD       7 SPECIES  1

 TOTAL OF       1OUTER ITERATIONS
  MAXIMUM CHANGE FOR EACH ITERATION:
   MAX. CHANGE        NODE  MAX. CHANGE        NODE  MAX. CHANGE        NODE  MAX. CHANGE        NODE  MAX. CHANGE        NODE
 ------------------------------------------------------------------------------------------------------------------------------------
   0.56038E-11,        191

  MAXIMUM CHANGE FOR CLN NODE AT EACH ITERATION:
   MAX. CHANGE    CLN-CELL  MAX. CHANGE    CLN-CELL  MAX. CHANGE    CLN-CELL  MAX. CHANGE    CLN-CELL  MAX. CHANGE    CLN-CELL
 ------------------------------------------------------------------------------------------------------------------------------------
  -0.89563E-09,          3
     TRANSPORT SOLUTION COMPLETE FOR COMPONENT SPECIES NUMBER    1
     ------------------------------------------------------------
 UBUDSVU SAVING "    MASS STORAGE" ON UNIT 145 AT TIME STEP      2, STRESS PERIOD      7
 UBUDSVU SAVING "CLN MASS STORAGE" ON UNIT 145 AT TIME STEP      2, STRESS PERIOD      7
 UBUDSVU SAVING "CNST H MASS FLUX" ON UNIT 145 AT TIME STEP      2, STRESS PERIOD      7
 UBUDSVU SAVING "  WELL MASS FLUX" ON UNIT 145 AT TIME STEP      2, STRESS PERIOD      7

 TRANSPORT SOLUTION COMPLETE FOR ALL SPECIES, SORTING OUTPUT FOR CONCENTRATIONS AND MASS BALANCE
 ----------------------------------------------------------------------------------------------------
     TRANSPORT OUTPUT FOR COMPONENT SPECIES NUMBER    1
     ------------------------------------------------------------

 CONC WILL BE SAVED ON UNIT  132 AT END OF TIME STEP        2, STRESS PERIOD        7

 CLN CONC WILL BE SAVED ON UNIT  188 AT END OF TIME STEP   2, STRESS PERIOD    7
1
  VOLUMETRIC BUDGET FOR ENTIRE MODEL AT END OF TIME STEP       2 IN STRESS PERIOD       7
  ---------------------------------------------------------------------------------------

     CUMULATIVE VOLUMES      L**3       RATES FOR THIS TIME STEP      L**3/T
     ------------------                 ------------------------

           IN:                                      IN:
           ---                                      ---
        MASS STORAGE =          91.2712          MASS STORAGE =           0.5000
    CNST H MASS FLUX =           0.0000      CNST H MASS FLUX =           0.0000
      WELL MASS FLUX =           0.0000        WELL MASS FLUX =           0.0000

            TOTAL IN =          91.2712              TOTAL IN =           0.5000

          OUT:                                     OUT:
          ----                                     ----
        MASS STORAGE =           0.2827          MASS STORAGE =           0.0000
    CNST H MASS FLUX =           0.0000      CNST H MASS FLUX =           0.0000
      WELL MASS FLUX =          90.9885        WELL MASS FLUX =           0.5000

           TOTAL OUT =          91.2712             TOTAL OUT =           0.5000

            IN - OUT =      -2.8635E-11              IN - OUT =           0.0000

 PERCENT DISCREPANCY =          -0.00     PERCENT DISCREPANCY =           0.00






          TIME SUMMARY AT END OF TIME STEP         2 IN STRESS PERIOD         7
                    SECONDS     MINUTES      HOURS       DAYS        YEARS
                    -----------------------------------------------------------
   TIME STEP LENGTH 1.19821E+05  1997.0      33.284      1.3868     3.79690E-03
 STRESS PERIOD TIME 2.19672E+05  3661.2      61.020      2.5425     6.96099E-03
         TOTAL TIME 1.57717E+07 2.62861E+05  4381.0      182.54     0.49977    
1
 -------------------------------------------------------------------------------------
 
 SOLVING FOR HEAD 

 Outer-Iteration  Inner-Iteration  Backtracking  Number of        Incoming       Outgoing  Maximum HeadChange      Maximum Head Change
     Number           Count           Flag       Backtracks       Residual       Residual           Value              Location
        1                             0             0          0.427192E-01     0.427192E-01
        1                5                                                                       -0.844425E-01                 1           GWF-node number
        1                5                                                                       -0.788791E-01                 1           CLN-node number
        2                             0             0          0.943776E-15     0.943776E-15
        2                1                                                                       -0.200073E-07               406           GWF-node number
        2                1                                                                        0.114350E-08                 1           CLN-node number
     2 CALLS TO SPARSE MATRIX SOLVER PACKAGE  IN FLOW TIME STEP       3 STRESS PERIOD       7

 TOTAL OF       2OUTER ITERATIONS
  MAXIMUM CHANGE FOR EACH ITERATION:
   MAX. CHANGE        NODE  MAX. CHANGE        NODE  MAX. CHANGE        NODE  MAX. CHANGE        NODE  MAX. CHANGE        NODE
 ------------------------------------------------------------------------------------------------------------------------------------
  -0.84442E-01,          1 -0.20007E-07,        406

  MAXIMUM CHANGE FOR CLN NODE AT EACH ITERATION:
   MAX. CHANGE    CLN-CELL  MAX. CHANGE    CLN-CELL  MAX. CHANGE    CLN-CELL  MAX. CHANGE    CLN-CELL  MAX. CHANGE    CLN-CELL
 ------------------------------------------------------------------------------------------------------------------------------------
  -0.78879E-01,          1  0.11435E-08,          1

 HEAD/DRAWDOWN PRINTOUT FLAG = 1     TOTAL BUDGET PRINTOUT FLAG = 1
 CELL-BY-CELL FLOW TERM FLAG = 1
 CONCENTRATION PRINTOUT FLAG = 1

 OUTPUT FLAGS FOR ALL LAYERS ARE THE SAME:
   HEAD    DRAWDOWN  HEAD  DRAWDOWN    CONC    CONC
 PRINTOUT  PRINTOUT  SAVE    SAVE    PRINTOUT  SAVE
 ---------------------------------------------------
     0         0       1       1       0       1
 UBUDSVU SAVING "         STORAGE" ON UNIT  50 AT TIME STEP      3, STRESS PERIOD      7
 UBUDSV SAVING "     CLN STORAGE" ON UNIT 144 AT TIME STEP      3, STRESS PERIOD       7
 UBUDSVU SAVING "   CONSTANT HEAD" ON UNIT  50 AT TIME STEP      3, STRESS PERIOD      7
 UBUDSVU SAVING "   FLOW JA FACE " ON UNIT  50 AT TIME STEP      3, STRESS PERIOD      7
 UBUDSVU SAVING "             CLN" ON UNIT  50 AT TIME STEP      3, STRESS PERIOD      7
 UBUDSVU SAVING "  CLN CONST HEAD" ON UNIT 144 AT TIME STEP      3, STRESS PERIOD      7
 UBUDSVU SAVING "   FLOW CLN FACE" ON UNIT 144 AT TIME STEP      3, STRESS PERIOD      7
 UBUDSVU SAVING "             GWF" ON UNIT 144 AT TIME STEP      3, STRESS PERIOD      7
 UBUDSVU SAVING "           WELLS" ON UNIT  50 AT TIME STEP      3, STRESS PERIOD      7
 UBUDSVU SAVING "           WELLS" ON UNIT 144 AT TIME STEP      3, STRESS PERIOD      7

 HEAD WILL BE SAVED ON UNIT       30 AT END OF TIME STEP        3, STRESS PERIOD        7

 DRAWDOWN WILL BE SAVED ON UNIT   31 AT END OF TIME STEP   3, STRESS PERIOD    7

 CLN HEAD WILL BE SAVED ON UNIT   77 AT END OF TIME STEP   3, STRESS PERIOD    7
1
  VOLUMETRIC BUDGET FOR ENTIRE MODEL AT END OF TIME STEP       3 IN STRESS PERIOD       7
  ---------------------------------------------------------------------------------------

     CUMULATIVE VOLUMES      L**3       RATES FOR THIS TIME STEP      L**3/T
     ------------------                 ------------------------

           IN:                                      IN:
           ---                                      ---
             STORAGE =         921.0334               STORAGE =           5.0000
         CLN STORAGE =           0.0000           CLN STORAGE =           0.0000
       CONSTANT HEAD =           0.0000         CONSTANT HEAD =           0.0000
      CLN CONST HEAD =           0.0000        CLN CONST HEAD =           0.0000
               WELLS =           0.0000                 WELLS =           0.0000

            TOTAL IN =         921.0334              TOTAL IN =           5.0000

          OUT:                                     OUT:
          ----                                     ----
             STORAGE =           0.0000               STORAGE =           0.0000
         CLN STORAGE =           0.0000           CLN STORAGE =           0.0000
       CONSTANT HEAD =           0.0000         CONSTANT HEAD =           0.0000
      CLN CONST HEAD =           0.0000        CLN CONST HEAD =           0.0000
               WELLS =         921.0334                 WELLS =           5.0000

           TOTAL OUT =         921.0334             TOTAL OUT =           5.0000

            IN - OUT =       9.4854E-06              IN - OUT =       4.0455E-08

 PERCENT DISCREPANCY =           0.00     PERCENT DISCREPANCY =           0.00






          TIME SUMMARY AT END OF TIME STEP         3 IN STRESS PERIOD         7
                    SECONDS     MINUTES      HOURS       DAYS        YEARS
                    -----------------------------------------------------------
   TIME STEP LENGTH 1.43785E+05  2396.4      39.940      1.6642     4.55628E-03
 STRESS PERIOD TIME 3.63458E+05  6057.6      100.96      4.2067     1.15173E-02
         TOTAL TIME 1.59155E+07 2.65258E+05  4421.0      184.21     0.50433    
1
 ------------------------------------------------------------------------------------------------------------
 
 SOLVING FOR TRANSPORT 

 ------------------------------------------------------------------------------------------------------------------------
     1 CALLS TO SPARSE MATRIX SOLVER PACKAGE IN TRANSPORT TIME STEP       3 STRESS PERIOD       7 SPECIES  1

 TOTAL OF       1OUTER ITERATIONS
  MAXIMUM CHANGE FOR EACH ITERATION:
   MAX. CHANGE        NODE  MAX. CHANGE        NODE  MAX. CHANGE        NODE  MAX. CHANGE        NODE  MAX. CHANGE        NODE
 ------------------------------------------------------------------------------------------------------------------------------------
  -0.15184E-11,        191

  MAXIMUM CHANGE FOR CLN NODE AT EACH ITERATION:
   MAX. CHANGE    CLN-CELL  MAX. CHANGE    CLN-CELL  MAX. CHANGE    CLN-CELL  MAX. CHANGE    CLN-CELL  MAX. CHANGE    CLN-CELL
 ------------------------------------------------------------------------------------------------------------------------------------
   0.47700E-09,          3
     TRANSPORT SOLUTION COMPLETE FOR COMPONENT SPECIES NUMBER    1
     ------------------------------------------------------------
 UBUDSVU SAVING "    MASS STORAGE" ON UNIT 145 AT TIME STEP      3, STRESS PERIOD      7
 UBUDSVU SAVING "CLN MASS STORAGE" ON UNIT 145 AT TIME STEP      3, STRESS PERIOD      7
 UBUDSVU SAVING "CNST H MASS FLUX" ON UNIT 145 AT TIME STEP      3, STRESS PERIOD      7
 UBUDSVU SAVING "  WELL MASS FLUX" ON UNIT 145 AT TIME STEP      3, STRESS PERIOD      7

 TRANSPORT SOLUTION COMPLETE FOR ALL SPECIES, SORTING OUTPUT FOR CONCENTRATIONS AND MASS BALANCE
 ----------------------------------------------------------------------------------------------------
     TRANSPORT OUTPUT FOR COMPONENT SPECIES NUMBER    1
     ------------------------------------------------------------

 CONC WILL BE SAVED ON UNIT  132 AT END OF TIME STEP        3, STRESS PERIOD        7

 CLN CONC WILL BE SAVED ON UNIT  188 AT END OF TIME STEP   3, STRESS PERIOD    7
1
  VOLUMETRIC BUDGET FOR ENTIRE MODEL AT END OF TIME STEP       3 IN STRESS PERIOD       7
  ---------------------------------------------------------------------------------------

     CUMULATIVE VOLUMES      L**3       RATES FOR THIS TIME STEP      L**3/T
     ------------------                 ------------------------

           IN:                                      IN:
           ---                                      ---
        MASS STORAGE =          92.1033          MASS STORAGE =           0.5000
    CNST H MASS FLUX =           0.0000      CNST H MASS FLUX =           0.0000
      WELL MASS FLUX =           0.0000        WELL MASS FLUX =           0.0000

            TOTAL IN =          92.1033              TOTAL IN =           0.5000

          OUT:                                     OUT:
          ----                                     ----
        MASS STORAGE =           0.2827          MASS STORAGE =       3.9001E-10
    CNST H MASS FLUX =           0.0000      CNST H MASS FLUX =           0.0000
      WELL MASS FLUX =          91.8206        WELL MASS FLUX =           0.5000

           TOTAL OUT =          92.1033             TOTAL OUT =           0.5000

            IN - OUT =      -2.8720E-11              IN - OUT =      -3.9001E-10

 PERCENT DISCREPANCY =          -0.00     PERCENT DISCREPANCY =          -0.00






          TIME SUMMARY AT END OF TIME STEP         3 IN STRESS PERIOD         7
                    SECONDS     MINUTES      HOURS       DAYS        YEARS
                    -----------------------------------------------------------
   TIME STEP LENGTH 1.43785E+05  2396.4      39.940      1.6642     4.55628E-03
 STRESS PERIOD TIME 3.63458E+05  6057.6      100.96      4.2067     1.15173E-02
         TOTAL TIME 1.59155E+07 2.65258E+05  4421.0      184.21     0.50433    
1
 -------------------------------------------------------------------------------------
 
 SOLVING FOR HEAD 

 Outer-Iteration  Inner-Iteration  Backtracking  Number of        Incoming       Outgoing  Maximum HeadChange      Maximum Head Change
     Number           Count           Flag       Backtracks       Residual       Residual           Value              Location
        1                             0             0          0.426604E-01     0.426604E-01
        1                5                                                                       -0.101207                     1           GWF-node number
        1                5                                                                       -0.945506E-01                 1           CLN-node number
        2                             0             0          0.333356E-13     0.333356E-13
        2                1                                                                       -0.116086E-06               190           GWF-node number
        2                1                                                                       -0.243072E-06                 2           CLN-node number
     2 CALLS TO SPARSE MATRIX SOLVER PACKAGE  IN FLOW TIME STEP       4 STRESS PERIOD       7

 TOTAL OF       2OUTER ITERATIONS
  MAXIMUM CHANGE FOR EACH ITERATION:
   MAX. CHANGE        NODE  MAX. CHANGE        NODE  MAX. CHANGE        NODE  MAX. CHANGE        NODE  MAX. CHANGE        NODE
 ------------------------------------------------------------------------------------------------------------------------------------
  -0.10121    ,          1 -0.11609E-06,        190

  MAXIMUM CHANGE FOR CLN NODE AT EACH ITERATION:
   MAX. CHANGE    CLN-CELL  MAX. CHANGE    CLN-CELL  MAX. CHANGE    CLN-CELL  MAX. CHANGE    CLN-CELL  MAX. CHANGE    CLN-CELL
 ------------------------------------------------------------------------------------------------------------------------------------
  -0.94551E-01,          1 -0.24307E-06,          2

 HEAD/DRAWDOWN PRINTOUT FLAG = 1     TOTAL BUDGET PRINTOUT FLAG = 1
 CELL-BY-CELL FLOW TERM FLAG = 1
 CONCENTRATION PRINTOUT FLAG = 1

 OUTPUT FLAGS FOR ALL LAYERS ARE THE SAME:
   HEAD    DRAWDOWN  HEAD  DRAWDOWN    CONC    CONC
 PRINTOUT  PRINTOUT  SAVE    SAVE    PRINTOUT  SAVE
 ---------------------------------------------------
     0         0       1       1       0       1
 UBUDSVU SAVING "         STORAGE" ON UNIT  50 AT TIME STEP      4, STRESS PERIOD      7
 UBUDSV SAVING "     CLN STORAGE" ON UNIT 144 AT TIME STEP      4, STRESS PERIOD       7
 UBUDSVU SAVING "   CONSTANT HEAD" ON UNIT  50 AT TIME STEP      4, STRESS PERIOD      7
 UBUDSVU SAVING "   FLOW JA FACE " ON UNIT  50 AT TIME STEP      4, STRESS PERIOD      7
 UBUDSVU SAVING "             CLN" ON UNIT  50 AT TIME STEP      4, STRESS PERIOD      7
 UBUDSVU SAVING "  CLN CONST HEAD" ON UNIT 144 AT TIME STEP      4, STRESS PERIOD      7
 UBUDSVU SAVING "   FLOW CLN FACE" ON UNIT 144 AT TIME STEP      4, STRESS PERIOD      7
 UBUDSVU SAVING "             GWF" ON UNIT 144 AT TIME STEP      4, STRESS PERIOD      7
 UBUDSVU SAVING "           WELLS" ON UNIT  50 AT TIME STEP      4, STRESS PERIOD      7
 UBUDSVU SAVING "           WELLS" ON UNIT 144 AT TIME STEP      4, STRESS PERIOD      7

 HEAD WILL BE SAVED ON UNIT       30 AT END OF TIME STEP        4, STRESS PERIOD        7

 DRAWDOWN WILL BE SAVED ON UNIT   31 AT END OF TIME STEP   4, STRESS PERIOD    7

 CLN HEAD WILL BE SAVED ON UNIT   77 AT END OF TIME STEP   4, STRESS PERIOD    7
1
  VOLUMETRIC BUDGET FOR ENTIRE MODEL AT END OF TIME STEP       4 IN STRESS PERIOD       7
  ---------------------------------------------------------------------------------------

     CUMULATIVE VOLUMES      L**3       RATES FOR THIS TIME STEP      L**3/T
     ------------------                 ------------------------

           IN:                                      IN:
           ---                                      ---
             STORAGE =         931.0185               STORAGE =           5.0000
         CLN STORAGE =           0.0000           CLN STORAGE =           0.0000
       CONSTANT HEAD =           0.0000         CONSTANT HEAD =           0.0000
      CLN CONST HEAD =           0.0000        CLN CONST HEAD =           0.0000
               WELLS =           0.0000                 WELLS =           0.0000

            TOTAL IN =         931.0185              TOTAL IN =           5.0000

          OUT:                                     OUT:
          ----                                     ----
             STORAGE =           0.0000               STORAGE =           0.0000
         CLN STORAGE =           0.0000           CLN STORAGE =           0.0000
       CONSTANT HEAD =           0.0000         CONSTANT HEAD =           0.0000
      CLN CONST HEAD =           0.0000        CLN CONST HEAD =           0.0000
               WELLS =         931.0185                 WELLS =           5.0000

           TOTAL OUT =         931.0185             TOTAL OUT =           5.0000

            IN - OUT =       9.5379E-06              IN - OUT =       2.6279E-08

 PERCENT DISCREPANCY =           0.00     PERCENT DISCREPANCY =           0.00






          TIME SUMMARY AT END OF TIME STEP         4 IN STRESS PERIOD         7
                    SECONDS     MINUTES      HOURS       DAYS        YEARS
                    -----------------------------------------------------------
   TIME STEP LENGTH 1.72542E+05  2875.7      47.928      1.9970     5.46754E-03
 STRESS PERIOD TIME 5.36000E+05  8933.3      148.89      6.2037     1.69848E-02
         TOTAL TIME 1.60880E+07 2.68133E+05  4468.9      186.20     0.50980    
1
 ------------------------------------------------------------------------------------------------------------
 
 SOLVING FOR TRANSPORT 

 ------------------------------------------------------------------------------------------------------------------------
     1 CALLS TO SPARSE MATRIX SOLVER PACKAGE IN TRANSPORT TIME STEP       4 STRESS PERIOD       7 SPECIES  1

 TOTAL OF       1OUTER ITERATIONS
  MAXIMUM CHANGE FOR EACH ITERATION:
   MAX. CHANGE        NODE  MAX. CHANGE        NODE  MAX. CHANGE        NODE  MAX. CHANGE        NODE  MAX. CHANGE        NODE
 ------------------------------------------------------------------------------------------------------------------------------------
  -0.20658E-10,        191

  MAXIMUM CHANGE FOR CLN NODE AT EACH ITERATION:
   MAX. CHANGE    CLN-CELL  MAX. CHANGE    CLN-CELL  MAX. CHANGE    CLN-CELL  MAX. CHANGE    CLN-CELL  MAX. CHANGE    CLN-CELL
 ------------------------------------------------------------------------------------------------------------------------------------
   0.10696E-08,          2
     TRANSPORT SOLUTION COMPLETE FOR COMPONENT SPECIES NUMBER    1
     ------------------------------------------------------------
 UBUDSVU SAVING "    MASS STORAGE" ON UNIT 145 AT TIME STEP      4, STRESS PERIOD      7
 UBUDSVU SAVING "CLN MASS STORAGE" ON UNIT 145 AT TIME STEP      4, STRESS PERIOD      7
 UBUDSVU SAVING "CNST H MASS FLUX" ON UNIT 145 AT TIME STEP      4, STRESS PERIOD      7
 UBUDSVU SAVING "  WELL MASS FLUX" ON UNIT 145 AT TIME STEP      4, STRESS PERIOD      7

 TRANSPORT SOLUTION COMPLETE FOR ALL SPECIES, SORTING OUTPUT FOR CONCENTRATIONS AND MASS BALANCE
 ----------------------------------------------------------------------------------------------------
     TRANSPORT OUTPUT FOR COMPONENT SPECIES NUMBER    1
     ------------------------------------------------------------

 CONC WILL BE SAVED ON UNIT  132 AT END OF TIME STEP        4, STRESS PERIOD        7

 CLN CONC WILL BE SAVED ON UNIT  188 AT END OF TIME STEP   4, STRESS PERIOD    7
1
  VOLUMETRIC BUDGET FOR ENTIRE MODEL AT END OF TIME STEP       4 IN STRESS PERIOD       7
  ---------------------------------------------------------------------------------------

     CUMULATIVE VOLUMES      L**3       RATES FOR THIS TIME STEP      L**3/T
     ------------------                 ------------------------

           IN:                                      IN:
           ---                                      ---
        MASS STORAGE =          93.1019          MASS STORAGE =           0.5000
    CNST H MASS FLUX =           0.0000      CNST H MASS FLUX =           0.0000
      WELL MASS FLUX =           0.0000        WELL MASS FLUX =           0.0000

            TOTAL IN =          93.1019              TOTAL IN =           0.5000

          OUT:                                     OUT:
          ----                                     ----
        MASS STORAGE =           0.2827          MASS STORAGE =       8.2710E-10
    CNST H MASS FLUX =           0.0000      CNST H MASS FLUX =           0.0000
      WELL MASS FLUX =          92.8191        WELL MASS FLUX =           0.5000

           TOTAL OUT =          93.1019             TOTAL OUT =           0.5000

            IN - OUT =      -3.2600E-11              IN - OUT =      -8.2710E-10

 PERCENT DISCREPANCY =          -0.00     PERCENT DISCREPANCY =          -0.00






          TIME SUMMARY AT END OF TIME STEP         4 IN STRESS PERIOD         7
                    SECONDS     MINUTES      HOURS       DAYS        YEARS
                    -----------------------------------------------------------
   TIME STEP LENGTH 1.72542E+05  2875.7      47.928      1.9970     5.46754E-03
 STRESS PERIOD TIME 5.36000E+05  8933.3      148.89      6.2037     1.69848E-02
         TOTAL TIME 1.60880E+07 2.68133E+05  4468.9      186.20     0.50980    
1
 -------------------------------------------------------------------------------------
 
 SOLVING FOR HEAD 

 Outer-Iteration  Inner-Iteration  Backtracking  Number of        Incoming       Outgoing  Maximum HeadChange      Maximum Head Change
     Number           Count           Flag       Backtracks       Residual       Residual           Value              Location
        1                             0             0          0.425903E-01     0.425903E-01
        1                6                                                                       -0.121271                     1           GWF-node number
        1                6                                                                       -0.113312                     3           CLN-node number
        2                             0             0          0.710517E-16     0.710517E-16
        2                1                                                                       -0.115761E-07               190           GWF-node number
        2                1                                                                       -0.284536E-07                 3           CLN-node number
     2 CALLS TO SPARSE MATRIX SOLVER PACKAGE  IN FLOW TIME STEP       5 STRESS PERIOD       7

 TOTAL OF       2OUTER ITERATIONS
  MAXIMUM CHANGE FOR EACH ITERATION:
   MAX. CHANGE        NODE  MAX. CHANGE        NODE  MAX. CHANGE        NODE  MAX. CHANGE        NODE  MAX. CHANGE        NODE
 ------------------------------------------------------------------------------------------------------------------------------------
  -0.12127    ,          1 -0.11576E-07,        190

  MAXIMUM CHANGE FOR CLN NODE AT EACH ITERATION:
   MAX. CHANGE    CLN-CELL  MAX. CHANGE    CLN-CELL  MAX. CHANGE    CLN-CELL  MAX. CHANGE    CLN-CELL  MAX. CHANGE    CLN-CELL
 ------------------------------------------------------------------------------------------------------------------------------------
  -0.11331    ,          3 -0.28454E-07,          3

 HEAD/DRAWDOWN PRINTOUT FLAG = 1     TOTAL BUDGET PRINTOUT FLAG = 1
 CELL-BY-CELL FLOW TERM FLAG = 1
 CONCENTRATION PRINTOUT FLAG = 1

 OUTPUT FLAGS FOR ALL LAYERS ARE THE SAME:
   HEAD    DRAWDOWN  HEAD  DRAWDOWN    CONC    CONC
 PRINTOUT  PRINTOUT  SAVE    SAVE    PRINTOUT  SAVE
 ---------------------------------------------------
     0         0       1       1       0       1
 UBUDSVU SAVING "         STORAGE" ON UNIT  50 AT TIME STEP      5, STRESS PERIOD      7
 UBUDSV SAVING "     CLN STORAGE" ON UNIT 144 AT TIME STEP      5, STRESS PERIOD       7
 UBUDSVU SAVING "   CONSTANT HEAD" ON UNIT  50 AT TIME STEP      5, STRESS PERIOD      7
 UBUDSVU SAVING "   FLOW JA FACE " ON UNIT  50 AT TIME STEP      5, STRESS PERIOD      7
 UBUDSVU SAVING "             CLN" ON UNIT  50 AT TIME STEP      5, STRESS PERIOD      7
 UBUDSVU SAVING "  CLN CONST HEAD" ON UNIT 144 AT TIME STEP      5, STRESS PERIOD      7
 UBUDSVU SAVING "   FLOW CLN FACE" ON UNIT 144 AT TIME STEP      5, STRESS PERIOD      7
 UBUDSVU SAVING "             GWF" ON UNIT 144 AT TIME STEP      5, STRESS PERIOD      7
 UBUDSVU SAVING "           WELLS" ON UNIT  50 AT TIME STEP      5, STRESS PERIOD      7
 UBUDSVU SAVING "           WELLS" ON UNIT 144 AT TIME STEP      5, STRESS PERIOD      7

 HEAD WILL BE SAVED ON UNIT       30 AT END OF TIME STEP        5, STRESS PERIOD        7

 DRAWDOWN WILL BE SAVED ON UNIT   31 AT END OF TIME STEP   5, STRESS PERIOD    7

 CLN HEAD WILL BE SAVED ON UNIT   77 AT END OF TIME STEP   5, STRESS PERIOD    7
1
  VOLUMETRIC BUDGET FOR ENTIRE MODEL AT END OF TIME STEP       5 IN STRESS PERIOD       7
  ---------------------------------------------------------------------------------------

     CUMULATIVE VOLUMES      L**3       RATES FOR THIS TIME STEP      L**3/T
     ------------------                 ------------------------

           IN:                                      IN:
           ---                                      ---
             STORAGE =         943.0006               STORAGE =           5.0000
         CLN STORAGE =           0.0000           CLN STORAGE =           0.0000
       CONSTANT HEAD =           0.0000         CONSTANT HEAD =           0.0000
      CLN CONST HEAD =           0.0000        CLN CONST HEAD =           0.0000
               WELLS =           0.0000                 WELLS =           0.0000

            TOTAL IN =         943.0006              TOTAL IN =           5.0000

          OUT:                                     OUT:
          ----                                     ----
             STORAGE =           0.0000               STORAGE =           0.0000
         CLN STORAGE =           0.0000           CLN STORAGE =           0.0000
       CONSTANT HEAD =           0.0000         CONSTANT HEAD =           0.0000
      CLN CONST HEAD =           0.0000        CLN CONST HEAD =           0.0000
               WELLS =         943.0006                 WELLS =           5.0000

           TOTAL OUT =         943.0006             TOTAL OUT =           5.0000

            IN - OUT =       9.6968E-06              IN - OUT =       6.6330E-08

 PERCENT DISCREPANCY =           0.00     PERCENT DISCREPANCY =           0.00






          TIME SUMMARY AT END OF TIME STEP         5 IN STRESS PERIOD         7
                    SECONDS     MINUTES      HOURS       DAYS        YEARS
                    -----------------------------------------------------------
   TIME STEP LENGTH 2.07051E+05  3450.8      57.514      2.3964     6.56105E-03
 STRESS PERIOD TIME 7.43051E+05  12384.      206.40      8.6001     2.35459E-02
         TOTAL TIME 1.62950E+07 2.71584E+05  4526.4      188.60     0.51636    
1
 ------------------------------------------------------------------------------------------------------------
 
 SOLVING FOR TRANSPORT 

 ------------------------------------------------------------------------------------------------------------------------
     1 CALLS TO SPARSE MATRIX SOLVER PACKAGE IN TRANSPORT TIME STEP       5 STRESS PERIOD       7 SPECIES  1

 TOTAL OF       1OUTER ITERATIONS
  MAXIMUM CHANGE FOR EACH ITERATION:
   MAX. CHANGE        NODE  MAX. CHANGE        NODE  MAX. CHANGE        NODE  MAX. CHANGE        NODE  MAX. CHANGE        NODE
 ------------------------------------------------------------------------------------------------------------------------------------
  -0.46790E-11,        191

  MAXIMUM CHANGE FOR CLN NODE AT EACH ITERATION:
   MAX. CHANGE    CLN-CELL  MAX. CHANGE    CLN-CELL  MAX. CHANGE    CLN-CELL  MAX. CHANGE    CLN-CELL  MAX. CHANGE    CLN-CELL
 ------------------------------------------------------------------------------------------------------------------------------------
  -0.90554E-09,          2
     TRANSPORT SOLUTION COMPLETE FOR COMPONENT SPECIES NUMBER    1
     ------------------------------------------------------------
 UBUDSVU SAVING "    MASS STORAGE" ON UNIT 145 AT TIME STEP      5, STRESS PERIOD      7
 UBUDSVU SAVING "CLN MASS STORAGE" ON UNIT 145 AT TIME STEP      5, STRESS PERIOD      7
 UBUDSVU SAVING "CNST H MASS FLUX" ON UNIT 145 AT TIME STEP      5, STRESS PERIOD      7
 UBUDSVU SAVING "  WELL MASS FLUX" ON UNIT 145 AT TIME STEP      5, STRESS PERIOD      7

 TRANSPORT SOLUTION COMPLETE FOR ALL SPECIES, SORTING OUTPUT FOR CONCENTRATIONS AND MASS BALANCE
 ----------------------------------------------------------------------------------------------------
     TRANSPORT OUTPUT FOR COMPONENT SPECIES NUMBER    1
     ------------------------------------------------------------

 CONC WILL BE SAVED ON UNIT  132 AT END OF TIME STEP        5, STRESS PERIOD        7

 CLN CONC WILL BE SAVED ON UNIT  188 AT END OF TIME STEP   5, STRESS PERIOD    7
1
  VOLUMETRIC BUDGET FOR ENTIRE MODEL AT END OF TIME STEP       5 IN STRESS PERIOD       7
  ---------------------------------------------------------------------------------------

     CUMULATIVE VOLUMES      L**3       RATES FOR THIS TIME STEP      L**3/T
     ------------------                 ------------------------

           IN:                                      IN:
           ---                                      ---
        MASS STORAGE =          94.3001          MASS STORAGE =           0.5000
    CNST H MASS FLUX =           0.0000      CNST H MASS FLUX =           0.0000
      WELL MASS FLUX =           0.0000        WELL MASS FLUX =           0.0000

            TOTAL IN =          94.3001              TOTAL IN =           0.5000

          OUT:                                     OUT:
          ----                                     ----
        MASS STORAGE =           0.2827          MASS STORAGE =       1.4869E-10
    CNST H MASS FLUX =           0.0000      CNST H MASS FLUX =           0.0000
      WELL MASS FLUX =          94.0173        WELL MASS FLUX =           0.5000

           TOTAL OUT =          94.3001             TOTAL OUT =           0.5000

            IN - OUT =      -3.3666E-11              IN - OUT =      -1.4869E-10

 PERCENT DISCREPANCY =          -0.00     PERCENT DISCREPANCY =          -0.00






          TIME SUMMARY AT END OF TIME STEP         5 IN STRESS PERIOD         7
                    SECONDS     MINUTES      HOURS       DAYS        YEARS
                    -----------------------------------------------------------
   TIME STEP LENGTH 2.07051E+05  3450.8      57.514      2.3964     6.56105E-03
 STRESS PERIOD TIME 7.43051E+05  12384.      206.40      8.6001     2.35459E-02
         TOTAL TIME 1.62950E+07 2.71584E+05  4526.4      188.60     0.51636    
1
 -------------------------------------------------------------------------------------
 
 SOLVING FOR HEAD 

 Outer-Iteration  Inner-Iteration  Backtracking  Number of        Incoming       Outgoing  Maximum HeadChange      Maximum Head Change
     Number           Count           Flag       Backtracks       Residual       Residual           Value              Location
        1                             0             0          0.425068E-01     0.425068E-01
        1                6                                                                       -0.145274                     1           GWF-node number
        1                6                                                                       -0.135763                     1           CLN-node number
        2                             0             0          0.307451E-14     0.307451E-14
        2                1                                                                        0.197620E-07               401           GWF-node number
        2                1                                                                       -0.421979E-07                 1           CLN-node number
     2 CALLS TO SPARSE MATRIX SOLVER PACKAGE  IN FLOW TIME STEP       6 STRESS PERIOD       7

 TOTAL OF       2OUTER ITERATIONS
  MAXIMUM CHANGE FOR EACH ITERATION:
   MAX. CHANGE        NODE  MAX. CHANGE        NODE  MAX. CHANGE        NODE  MAX. CHANGE        NODE  MAX. CHANGE        NODE
 ------------------------------------------------------------------------------------------------------------------------------------
  -0.14527    ,          1  0.19762E-07,        401

  MAXIMUM CHANGE FOR CLN NODE AT EACH ITERATION:
   MAX. CHANGE    CLN-CELL  MAX. CHANGE    CLN-CELL  MAX. CHANGE    CLN-CELL  MAX. CHANGE    CLN-CELL  MAX. CHANGE    CLN-CELL
 ------------------------------------------------------------------------------------------------------------------------------------
  -0.13576    ,          1 -0.42198E-07,          1

 HEAD/DRAWDOWN PRINTOUT FLAG = 1     TOTAL BUDGET PRINTOUT FLAG = 1
 CELL-BY-CELL FLOW TERM FLAG = 1
 CONCENTRATION PRINTOUT FLAG = 1

 OUTPUT FLAGS FOR ALL LAYERS ARE THE SAME:
   HEAD    DRAWDOWN  HEAD  DRAWDOWN    CONC    CONC
 PRINTOUT  PRINTOUT  SAVE    SAVE    PRINTOUT  SAVE
 ---------------------------------------------------
     0         0       1       1       0       1
 UBUDSVU SAVING "         STORAGE" ON UNIT  50 AT TIME STEP      6, STRESS PERIOD      7
 UBUDSV SAVING "     CLN STORAGE" ON UNIT 144 AT TIME STEP      6, STRESS PERIOD       7
 UBUDSVU SAVING "   CONSTANT HEAD" ON UNIT  50 AT TIME STEP      6, STRESS PERIOD      7
 UBUDSVU SAVING "   FLOW JA FACE " ON UNIT  50 AT TIME STEP      6, STRESS PERIOD      7
 UBUDSVU SAVING "             CLN" ON UNIT  50 AT TIME STEP      6, STRESS PERIOD      7
 UBUDSVU SAVING "  CLN CONST HEAD" ON UNIT 144 AT TIME STEP      6, STRESS PERIOD      7
 UBUDSVU SAVING "   FLOW CLN FACE" ON UNIT 144 AT TIME STEP      6, STRESS PERIOD      7
 UBUDSVU SAVING "             GWF" ON UNIT 144 AT TIME STEP      6, STRESS PERIOD      7
 UBUDSVU SAVING "           WELLS" ON UNIT  50 AT TIME STEP      6, STRESS PERIOD      7
 UBUDSVU SAVING "           WELLS" ON UNIT 144 AT TIME STEP      6, STRESS PERIOD      7

 HEAD WILL BE SAVED ON UNIT       30 AT END OF TIME STEP        6, STRESS PERIOD        7

 DRAWDOWN WILL BE SAVED ON UNIT   31 AT END OF TIME STEP   6, STRESS PERIOD    7

 CLN HEAD WILL BE SAVED ON UNIT   77 AT END OF TIME STEP   6, STRESS PERIOD    7
1
  VOLUMETRIC BUDGET FOR ENTIRE MODEL AT END OF TIME STEP       6 IN STRESS PERIOD       7
  ---------------------------------------------------------------------------------------

     CUMULATIVE VOLUMES      L**3       RATES FOR THIS TIME STEP      L**3/T
     ------------------                 ------------------------

           IN:                                      IN:
           ---                                      ---
             STORAGE =         957.3792               STORAGE =           5.0000
         CLN STORAGE =           0.0000           CLN STORAGE =           0.0000
       CONSTANT HEAD =           0.0000         CONSTANT HEAD =           0.0000
      CLN CONST HEAD =           0.0000        CLN CONST HEAD =           0.0000
               WELLS =           0.0000                 WELLS =           0.0000

            TOTAL IN =         957.3792              TOTAL IN =           5.0000

          OUT:                                     OUT:
          ----                                     ----
             STORAGE =           0.0000               STORAGE =           0.0000
         CLN STORAGE =           0.0000           CLN STORAGE =           0.0000
       CONSTANT HEAD =           0.0000         CONSTANT HEAD =           0.0000
      CLN CONST HEAD =           0.0000        CLN CONST HEAD =           0.0000
               WELLS =         957.3791                 WELLS =           5.0000

           TOTAL OUT =         957.3791             TOTAL OUT =           5.0000

            IN - OUT =       9.8027E-06              IN - OUT =       3.6833E-08

 PERCENT DISCREPANCY =           0.00     PERCENT DISCREPANCY =           0.00






          TIME SUMMARY AT END OF TIME STEP         6 IN STRESS PERIOD         7
                    SECONDS     MINUTES      HOURS       DAYS        YEARS
                    -----------------------------------------------------------
   TIME STEP LENGTH 2.48461E+05  4141.0      69.017      2.8757     7.87326E-03
 STRESS PERIOD TIME 9.91512E+05  16525.      275.42      11.476     3.14191E-02
         TOTAL TIME 1.65435E+07 2.75725E+05  4595.4      191.48     0.52423    
1
 ------------------------------------------------------------------------------------------------------------
 
 SOLVING FOR TRANSPORT 

 ------------------------------------------------------------------------------------------------------------------------
     1 CALLS TO SPARSE MATRIX SOLVER PACKAGE IN TRANSPORT TIME STEP       6 STRESS PERIOD       7 SPECIES  1

 TOTAL OF       1OUTER ITERATIONS
  MAXIMUM CHANGE FOR EACH ITERATION:
   MAX. CHANGE        NODE  MAX. CHANGE        NODE  MAX. CHANGE        NODE  MAX. CHANGE        NODE  MAX. CHANGE        NODE
 ------------------------------------------------------------------------------------------------------------------------------------
  -0.72201E-11,        191

  MAXIMUM CHANGE FOR CLN NODE AT EACH ITERATION:
   MAX. CHANGE    CLN-CELL  MAX. CHANGE    CLN-CELL  MAX. CHANGE    CLN-CELL  MAX. CHANGE    CLN-CELL  MAX. CHANGE    CLN-CELL
 ------------------------------------------------------------------------------------------------------------------------------------
   0.61048E-09,          2
     TRANSPORT SOLUTION COMPLETE FOR COMPONENT SPECIES NUMBER    1
     ------------------------------------------------------------
 UBUDSVU SAVING "    MASS STORAGE" ON UNIT 145 AT TIME STEP      6, STRESS PERIOD      7
 UBUDSVU SAVING "CLN MASS STORAGE" ON UNIT 145 AT TIME STEP      6, STRESS PERIOD      7
 UBUDSVU SAVING "CNST H MASS FLUX" ON UNIT 145 AT TIME STEP      6, STRESS PERIOD      7
 UBUDSVU SAVING "  WELL MASS FLUX" ON UNIT 145 AT TIME STEP      6, STRESS PERIOD      7

 TRANSPORT SOLUTION COMPLETE FOR ALL SPECIES, SORTING OUTPUT FOR CONCENTRATIONS AND MASS BALANCE
 ----------------------------------------------------------------------------------------------------
     TRANSPORT OUTPUT FOR COMPONENT SPECIES NUMBER    1
     ------------------------------------------------------------

 CONC WILL BE SAVED ON UNIT  132 AT END OF TIME STEP        6, STRESS PERIOD        7

 CLN CONC WILL BE SAVED ON UNIT  188 AT END OF TIME STEP   6, STRESS PERIOD    7
1
  VOLUMETRIC BUDGET FOR ENTIRE MODEL AT END OF TIME STEP       6 IN STRESS PERIOD       7
  ---------------------------------------------------------------------------------------

     CUMULATIVE VOLUMES      L**3       RATES FOR THIS TIME STEP      L**3/T
     ------------------                 ------------------------

           IN:                                      IN:
           ---                                      ---
        MASS STORAGE =          95.7379          MASS STORAGE =           0.5000
    CNST H MASS FLUX =           0.0000      CNST H MASS FLUX =           0.0000
      WELL MASS FLUX =           0.0000        WELL MASS FLUX =           0.0000

            TOTAL IN =          95.7379              TOTAL IN =           0.5000

          OUT:                                     OUT:
          ----                                     ----
        MASS STORAGE =           0.2827          MASS STORAGE =       1.5006E-11
    CNST H MASS FLUX =           0.0000      CNST H MASS FLUX =           0.0000
      WELL MASS FLUX =          95.4552        WELL MASS FLUX =           0.5000

           TOTAL OUT =          95.7379             TOTAL OUT =           0.5000

            IN - OUT =      -3.6167E-11              IN - OUT =      -1.5006E-11

 PERCENT DISCREPANCY =          -0.00     PERCENT DISCREPANCY =          -0.00






          TIME SUMMARY AT END OF TIME STEP         6 IN STRESS PERIOD         7
                    SECONDS     MINUTES      HOURS       DAYS        YEARS
                    -----------------------------------------------------------
   TIME STEP LENGTH 2.48461E+05  4141.0      69.017      2.8757     7.87326E-03
 STRESS PERIOD TIME 9.91512E+05  16525.      275.42      11.476     3.14191E-02
         TOTAL TIME 1.65435E+07 2.75725E+05  4595.4      191.48     0.52423    
1
 -------------------------------------------------------------------------------------
 
 SOLVING FOR HEAD 

 Outer-Iteration  Inner-Iteration  Backtracking  Number of        Incoming       Outgoing  Maximum HeadChange      Maximum Head Change
     Number           Count           Flag       Backtracks       Residual       Residual           Value              Location
        1                             0             0          0.424074E-01     0.424074E-01
        1                6                                                                       -0.173973                     1           GWF-node number
        1                6                                                                       -0.162615                     2           CLN-node number
        2                             0             0          0.592384E-14     0.592384E-14
        2                1                                                                        0.617180E-07               401           GWF-node number
        2                1                                                                        0.833694E-07                 3           CLN-node number
     2 CALLS TO SPARSE MATRIX SOLVER PACKAGE  IN FLOW TIME STEP       7 STRESS PERIOD       7

 TOTAL OF       2OUTER ITERATIONS
  MAXIMUM CHANGE FOR EACH ITERATION:
   MAX. CHANGE        NODE  MAX. CHANGE        NODE  MAX. CHANGE        NODE  MAX. CHANGE        NODE  MAX. CHANGE        NODE
 ------------------------------------------------------------------------------------------------------------------------------------
  -0.17397    ,          1  0.61718E-07,        401

  MAXIMUM CHANGE FOR CLN NODE AT EACH ITERATION:
   MAX. CHANGE    CLN-CELL  MAX. CHANGE    CLN-CELL  MAX. CHANGE    CLN-CELL  MAX. CHANGE    CLN-CELL  MAX. CHANGE    CLN-CELL
 ------------------------------------------------------------------------------------------------------------------------------------
  -0.16261    ,          2  0.83369E-07,          3

 HEAD/DRAWDOWN PRINTOUT FLAG = 1     TOTAL BUDGET PRINTOUT FLAG = 1
 CELL-BY-CELL FLOW TERM FLAG = 1
 CONCENTRATION PRINTOUT FLAG = 1

 OUTPUT FLAGS FOR ALL LAYERS ARE THE SAME:
   HEAD    DRAWDOWN  HEAD  DRAWDOWN    CONC    CONC
 PRINTOUT  PRINTOUT  SAVE    SAVE    PRINTOUT  SAVE
 ---------------------------------------------------
     0         0       1       1       0       1
 UBUDSVU SAVING "         STORAGE" ON UNIT  50 AT TIME STEP      7, STRESS PERIOD      7
 UBUDSV SAVING "     CLN STORAGE" ON UNIT 144 AT TIME STEP      7, STRESS PERIOD       7
 UBUDSVU SAVING "   CONSTANT HEAD" ON UNIT  50 AT TIME STEP      7, STRESS PERIOD      7
 UBUDSVU SAVING "   FLOW JA FACE " ON UNIT  50 AT TIME STEP      7, STRESS PERIOD      7
 UBUDSVU SAVING "             CLN" ON UNIT  50 AT TIME STEP      7, STRESS PERIOD      7
 UBUDSVU SAVING "  CLN CONST HEAD" ON UNIT 144 AT TIME STEP      7, STRESS PERIOD      7
 UBUDSVU SAVING "   FLOW CLN FACE" ON UNIT 144 AT TIME STEP      7, STRESS PERIOD      7
 UBUDSVU SAVING "             GWF" ON UNIT 144 AT TIME STEP      7, STRESS PERIOD      7
 UBUDSVU SAVING "           WELLS" ON UNIT  50 AT TIME STEP      7, STRESS PERIOD      7
 UBUDSVU SAVING "           WELLS" ON UNIT 144 AT TIME STEP      7, STRESS PERIOD      7

 HEAD WILL BE SAVED ON UNIT       30 AT END OF TIME STEP        7, STRESS PERIOD        7

 DRAWDOWN WILL BE SAVED ON UNIT   31 AT END OF TIME STEP   7, STRESS PERIOD    7

 CLN HEAD WILL BE SAVED ON UNIT   77 AT END OF TIME STEP   7, STRESS PERIOD    7
1
  VOLUMETRIC BUDGET FOR ENTIRE MODEL AT END OF TIME STEP       7 IN STRESS PERIOD       7
  ---------------------------------------------------------------------------------------

     CUMULATIVE VOLUMES      L**3       RATES FOR THIS TIME STEP      L**3/T
     ------------------                 ------------------------

           IN:                                      IN:
           ---                                      ---
             STORAGE =         974.6334               STORAGE =           5.0000
         CLN STORAGE =           0.0000           CLN STORAGE =           0.0000
       CONSTANT HEAD =           0.0000         CONSTANT HEAD =           0.0000
      CLN CONST HEAD =           0.0000        CLN CONST HEAD =           0.0000
               WELLS =           0.0000                 WELLS =           0.0000

            TOTAL IN =         974.6334              TOTAL IN =           5.0000

          OUT:                                     OUT:
          ----                                     ----
             STORAGE =           0.0000               STORAGE =           0.0000
         CLN STORAGE =           0.0000           CLN STORAGE =           0.0000
       CONSTANT HEAD =           0.0000         CONSTANT HEAD =           0.0000
      CLN CONST HEAD =           0.0000        CLN CONST HEAD =           0.0000
               WELLS =         974.6334                 WELLS =           5.0000

           TOTAL OUT =         974.6334             TOTAL OUT =           5.0000

            IN - OUT =       9.8446E-06              IN - OUT =       1.2134E-08

 PERCENT DISCREPANCY =           0.00     PERCENT DISCREPANCY =           0.00






          TIME SUMMARY AT END OF TIME STEP         7 IN STRESS PERIOD         7
                    SECONDS     MINUTES      HOURS       DAYS        YEARS
                    -----------------------------------------------------------
   TIME STEP LENGTH 2.98153E+05  4969.2      82.820      3.4509     9.44791E-03
 STRESS PERIOD TIME 1.28967E+06  21494.      358.24      14.927     4.08670E-02
         TOTAL TIME 1.68417E+07 2.80694E+05  4678.2      194.93     0.53368    
1
 ------------------------------------------------------------------------------------------------------------
 
 SOLVING FOR TRANSPORT 

 ------------------------------------------------------------------------------------------------------------------------
     1 CALLS TO SPARSE MATRIX SOLVER PACKAGE IN TRANSPORT TIME STEP       7 STRESS PERIOD       7 SPECIES  1

 TOTAL OF       1OUTER ITERATIONS
  MAXIMUM CHANGE FOR EACH ITERATION:
   MAX. CHANGE        NODE  MAX. CHANGE        NODE  MAX. CHANGE        NODE  MAX. CHANGE        NODE  MAX. CHANGE        NODE
 ------------------------------------------------------------------------------------------------------------------------------------
   0.88840E-11,        191

  MAXIMUM CHANGE FOR CLN NODE AT EACH ITERATION:
   MAX. CHANGE    CLN-CELL  MAX. CHANGE    CLN-CELL  MAX. CHANGE    CLN-CELL  MAX. CHANGE    CLN-CELL  MAX. CHANGE    CLN-CELL
 ------------------------------------------------------------------------------------------------------------------------------------
  -0.95999E-09,          3
     TRANSPORT SOLUTION COMPLETE FOR COMPONENT SPECIES NUMBER    1
     ------------------------------------------------------------
 UBUDSVU SAVING "    MASS STORAGE" ON UNIT 145 AT TIME STEP      7, STRESS PERIOD      7
 UBUDSVU SAVING "CLN MASS STORAGE" ON UNIT 145 AT TIME STEP      7, STRESS PERIOD      7
 UBUDSVU SAVING "CNST H MASS FLUX" ON UNIT 145 AT TIME STEP      7, STRESS PERIOD      7
 UBUDSVU SAVING "  WELL MASS FLUX" ON UNIT 145 AT TIME STEP      7, STRESS PERIOD      7

 TRANSPORT SOLUTION COMPLETE FOR ALL SPECIES, SORTING OUTPUT FOR CONCENTRATIONS AND MASS BALANCE
 ----------------------------------------------------------------------------------------------------
     TRANSPORT OUTPUT FOR COMPONENT SPECIES NUMBER    1
     ------------------------------------------------------------

 CONC WILL BE SAVED ON UNIT  132 AT END OF TIME STEP        7, STRESS PERIOD        7

 CLN CONC WILL BE SAVED ON UNIT  188 AT END OF TIME STEP   7, STRESS PERIOD    7
1
  VOLUMETRIC BUDGET FOR ENTIRE MODEL AT END OF TIME STEP       7 IN STRESS PERIOD       7
  ---------------------------------------------------------------------------------------

     CUMULATIVE VOLUMES      L**3       RATES FOR THIS TIME STEP      L**3/T
     ------------------                 ------------------------

           IN:                                      IN:
           ---                                      ---
        MASS STORAGE =          97.4633          MASS STORAGE =           0.5000
    CNST H MASS FLUX =           0.0000      CNST H MASS FLUX =           0.0000
      WELL MASS FLUX =           0.0000        WELL MASS FLUX =           0.0000

            TOTAL IN =          97.4633              TOTAL IN =           0.5000

          OUT:                                     OUT:
          ----                                     ----
        MASS STORAGE =           0.2827          MASS STORAGE =           0.0000
    CNST H MASS FLUX =           0.0000      CNST H MASS FLUX =           0.0000
      WELL MASS FLUX =          97.1806        WELL MASS FLUX =           0.5000

           TOTAL OUT =          97.4633             TOTAL OUT =           0.5000

            IN - OUT =      -3.2969E-11              IN - OUT =           0.0000

 PERCENT DISCREPANCY =          -0.00     PERCENT DISCREPANCY =           0.00






          TIME SUMMARY AT END OF TIME STEP         7 IN STRESS PERIOD         7
                    SECONDS     MINUTES      HOURS       DAYS        YEARS
                    -----------------------------------------------------------
   TIME STEP LENGTH 2.98153E+05  4969.2      82.820      3.4509     9.44791E-03
 STRESS PERIOD TIME 1.28967E+06  21494.      358.24      14.927     4.08670E-02
         TOTAL TIME 1.68417E+07 2.80694E+05  4678.2      194.93     0.53368    
1
 -------------------------------------------------------------------------------------
 
 SOLVING FOR HEAD 

 Outer-Iteration  Inner-Iteration  Backtracking  Number of        Incoming       Outgoing  Maximum HeadChange      Maximum Head Change
     Number           Count           Flag       Backtracks       Residual       Residual           Value              Location
        1                             0             0          0.422894E-01     0.422894E-01
        1                6                                                                       -0.208262                     1           GWF-node number
        1                6                                                                       -0.194710                     3           CLN-node number
        2                             0             0          0.979263E-14     0.979263E-14
        2                1                                                                        0.177102E-06               401           GWF-node number
        2                1                                                                        0.178232E-06                 3           CLN-node number
     2 CALLS TO SPARSE MATRIX SOLVER PACKAGE  IN FLOW TIME STEP       8 STRESS PERIOD       7

 TOTAL OF       2OUTER ITERATIONS
  MAXIMUM CHANGE FOR EACH ITERATION:
   MAX. CHANGE        NODE  MAX. CHANGE        NODE  MAX. CHANGE        NODE  MAX. CHANGE        NODE  MAX. CHANGE        NODE
 ------------------------------------------------------------------------------------------------------------------------------------
  -0.20826    ,          1  0.17710E-06,        401

  MAXIMUM CHANGE FOR CLN NODE AT EACH ITERATION:
   MAX. CHANGE    CLN-CELL  MAX. CHANGE    CLN-CELL  MAX. CHANGE    CLN-CELL  MAX. CHANGE    CLN-CELL  MAX. CHANGE    CLN-CELL
 ------------------------------------------------------------------------------------------------------------------------------------
  -0.19471    ,          3  0.17823E-06,          3

 HEAD/DRAWDOWN PRINTOUT FLAG = 1     TOTAL BUDGET PRINTOUT FLAG = 1
 CELL-BY-CELL FLOW TERM FLAG = 1
 CONCENTRATION PRINTOUT FLAG = 1

 OUTPUT FLAGS FOR ALL LAYERS ARE THE SAME:
   HEAD    DRAWDOWN  HEAD  DRAWDOWN    CONC    CONC
 PRINTOUT  PRINTOUT  SAVE    SAVE    PRINTOUT  SAVE
 ---------------------------------------------------
     0         0       1       1       0       1
 UBUDSVU SAVING "         STORAGE" ON UNIT  50 AT TIME STEP      8, STRESS PERIOD      7
 UBUDSV SAVING "     CLN STORAGE" ON UNIT 144 AT TIME STEP      8, STRESS PERIOD       7
 UBUDSVU SAVING "   CONSTANT HEAD" ON UNIT  50 AT TIME STEP      8, STRESS PERIOD      7
 UBUDSVU SAVING "   FLOW JA FACE " ON UNIT  50 AT TIME STEP      8, STRESS PERIOD      7
 UBUDSVU SAVING "             CLN" ON UNIT  50 AT TIME STEP      8, STRESS PERIOD      7
 UBUDSVU SAVING "  CLN CONST HEAD" ON UNIT 144 AT TIME STEP      8, STRESS PERIOD      7
 UBUDSVU SAVING "   FLOW CLN FACE" ON UNIT 144 AT TIME STEP      8, STRESS PERIOD      7
 UBUDSVU SAVING "             GWF" ON UNIT 144 AT TIME STEP      8, STRESS PERIOD      7
 UBUDSVU SAVING "           WELLS" ON UNIT  50 AT TIME STEP      8, STRESS PERIOD      7
 UBUDSVU SAVING "           WELLS" ON UNIT 144 AT TIME STEP      8, STRESS PERIOD      7

 HEAD WILL BE SAVED ON UNIT       30 AT END OF TIME STEP        8, STRESS PERIOD        7

 DRAWDOWN WILL BE SAVED ON UNIT   31 AT END OF TIME STEP   8, STRESS PERIOD    7

 CLN HEAD WILL BE SAVED ON UNIT   77 AT END OF TIME STEP   8, STRESS PERIOD    7
1
  VOLUMETRIC BUDGET FOR ENTIRE MODEL AT END OF TIME STEP       8 IN STRESS PERIOD       7
  ---------------------------------------------------------------------------------------

     CUMULATIVE VOLUMES      L**3       RATES FOR THIS TIME STEP      L**3/T
     ------------------                 ------------------------

           IN:                                      IN:
           ---                                      ---
             STORAGE =         995.3385               STORAGE =           5.0000
         CLN STORAGE =           0.0000           CLN STORAGE =           0.0000
       CONSTANT HEAD =           0.0000         CONSTANT HEAD =           0.0000
      CLN CONST HEAD =           0.0000        CLN CONST HEAD =           0.0000
               WELLS =           0.0000                 WELLS =           0.0000

            TOTAL IN =         995.3385              TOTAL IN =           5.0000

          OUT:                                     OUT:
          ----                                     ----
             STORAGE =           0.0000               STORAGE =           0.0000
         CLN STORAGE =           0.0000           CLN STORAGE =           0.0000
       CONSTANT HEAD =           0.0000         CONSTANT HEAD =           0.0000
      CLN CONST HEAD =           0.0000        CLN CONST HEAD =           0.0000
               WELLS =         995.3385                 WELLS =           5.0000

           TOTAL OUT =         995.3385             TOTAL OUT =           5.0000

            IN - OUT =       1.0067E-05              IN - OUT =       5.3749E-08

 PERCENT DISCREPANCY =           0.00     PERCENT DISCREPANCY =           0.00






          TIME SUMMARY AT END OF TIME STEP         8 IN STRESS PERIOD         7
                    SECONDS     MINUTES      HOURS       DAYS        YEARS
                    -----------------------------------------------------------
   TIME STEP LENGTH 3.57784E+05  5963.1      99.384      4.1410     1.13375E-02
 STRESS PERIOD TIME 1.64745E+06  27457.      457.62      19.068     5.22045E-02
         TOTAL TIME 1.71994E+07 2.86658E+05  4777.6      199.07     0.54502    
1
 ------------------------------------------------------------------------------------------------------------
 
 SOLVING FOR TRANSPORT 

 ------------------------------------------------------------------------------------------------------------------------
     1 CALLS TO SPARSE MATRIX SOLVER PACKAGE IN TRANSPORT TIME STEP       8 STRESS PERIOD       7 SPECIES  1

 TOTAL OF       1OUTER ITERATIONS
  MAXIMUM CHANGE FOR EACH ITERATION:
   MAX. CHANGE        NODE  MAX. CHANGE        NODE  MAX. CHANGE        NODE  MAX. CHANGE        NODE  MAX. CHANGE        NODE
 ------------------------------------------------------------------------------------------------------------------------------------
   0.26423E-10,        191

  MAXIMUM CHANGE FOR CLN NODE AT EACH ITERATION:
   MAX. CHANGE    CLN-CELL  MAX. CHANGE    CLN-CELL  MAX. CHANGE    CLN-CELL  MAX. CHANGE    CLN-CELL  MAX. CHANGE    CLN-CELL
 ------------------------------------------------------------------------------------------------------------------------------------
  -0.46600E-09,          2
     TRANSPORT SOLUTION COMPLETE FOR COMPONENT SPECIES NUMBER    1
     ------------------------------------------------------------
 UBUDSVU SAVING "    MASS STORAGE" ON UNIT 145 AT TIME STEP      8, STRESS PERIOD      7
 UBUDSVU SAVING "CLN MASS STORAGE" ON UNIT 145 AT TIME STEP      8, STRESS PERIOD      7
 UBUDSVU SAVING "CNST H MASS FLUX" ON UNIT 145 AT TIME STEP      8, STRESS PERIOD      7
 UBUDSVU SAVING "  WELL MASS FLUX" ON UNIT 145 AT TIME STEP      8, STRESS PERIOD      7

 TRANSPORT SOLUTION COMPLETE FOR ALL SPECIES, SORTING OUTPUT FOR CONCENTRATIONS AND MASS BALANCE
 ----------------------------------------------------------------------------------------------------
     TRANSPORT OUTPUT FOR COMPONENT SPECIES NUMBER    1
     ------------------------------------------------------------

 CONC WILL BE SAVED ON UNIT  132 AT END OF TIME STEP        8, STRESS PERIOD        7

 CLN CONC WILL BE SAVED ON UNIT  188 AT END OF TIME STEP   8, STRESS PERIOD    7
1
  VOLUMETRIC BUDGET FOR ENTIRE MODEL AT END OF TIME STEP       8 IN STRESS PERIOD       7
  ---------------------------------------------------------------------------------------

     CUMULATIVE VOLUMES      L**3       RATES FOR THIS TIME STEP      L**3/T
     ------------------                 ------------------------

           IN:                                      IN:
           ---                                      ---
        MASS STORAGE =          99.5339          MASS STORAGE =           0.5000
    CNST H MASS FLUX =           0.0000      CNST H MASS FLUX =           0.0000
      WELL MASS FLUX =           0.0000        WELL MASS FLUX =           0.0000

            TOTAL IN =          99.5339              TOTAL IN =           0.5000

          OUT:                                     OUT:
          ----                                     ----
        MASS STORAGE =           0.2827          MASS STORAGE =       1.2223E-10
    CNST H MASS FLUX =           0.0000      CNST H MASS FLUX =           0.0000
      WELL MASS FLUX =          99.2511        WELL MASS FLUX =           0.5000

           TOTAL OUT =          99.5339             TOTAL OUT =           0.5000

            IN - OUT =      -1.2093E-11              IN - OUT =      -1.2223E-10

 PERCENT DISCREPANCY =          -0.00     PERCENT DISCREPANCY =          -0.00






          TIME SUMMARY AT END OF TIME STEP         8 IN STRESS PERIOD         7
                    SECONDS     MINUTES      HOURS       DAYS        YEARS
                    -----------------------------------------------------------
   TIME STEP LENGTH 3.57784E+05  5963.1      99.384      4.1410     1.13375E-02
 STRESS PERIOD TIME 1.64745E+06  27457.      457.62      19.068     5.22045E-02
         TOTAL TIME 1.71994E+07 2.86658E+05  4777.6      199.07     0.54502    
1
 -------------------------------------------------------------------------------------
 
 SOLVING FOR HEAD 

 Outer-Iteration  Inner-Iteration  Backtracking  Number of        Incoming       Outgoing  Maximum HeadChange      Maximum Head Change
     Number           Count           Flag       Backtracks       Residual       Residual           Value              Location
        1                             0             0          0.421494E-01     0.421494E-01
        1                6                                                                       -0.249201                     1           GWF-node number
        1                6                                                                       -0.233047                     3           CLN-node number
        2                             0             0          0.104465E-12     0.104465E-12
        2                1                                                                        0.470922E-06               401           GWF-node number
        2                1                                                                        0.585157E-06                 3           CLN-node number
     2 CALLS TO SPARSE MATRIX SOLVER PACKAGE  IN FLOW TIME STEP       9 STRESS PERIOD       7

 TOTAL OF       2OUTER ITERATIONS
  MAXIMUM CHANGE FOR EACH ITERATION:
   MAX. CHANGE        NODE  MAX. CHANGE        NODE  MAX. CHANGE        NODE  MAX. CHANGE        NODE  MAX. CHANGE        NODE
 ------------------------------------------------------------------------------------------------------------------------------------
  -0.24920    ,          1  0.47092E-06,        401

  MAXIMUM CHANGE FOR CLN NODE AT EACH ITERATION:
   MAX. CHANGE    CLN-CELL  MAX. CHANGE    CLN-CELL  MAX. CHANGE    CLN-CELL  MAX. CHANGE    CLN-CELL  MAX. CHANGE    CLN-CELL
 ------------------------------------------------------------------------------------------------------------------------------------
  -0.23305    ,          3  0.58516E-06,          3

 HEAD/DRAWDOWN PRINTOUT FLAG = 1     TOTAL BUDGET PRINTOUT FLAG = 1
 CELL-BY-CELL FLOW TERM FLAG = 1
 CONCENTRATION PRINTOUT FLAG = 1

 OUTPUT FLAGS FOR ALL LAYERS ARE THE SAME:
   HEAD    DRAWDOWN  HEAD  DRAWDOWN    CONC    CONC
 PRINTOUT  PRINTOUT  SAVE    SAVE    PRINTOUT  SAVE
 ---------------------------------------------------
     0         0       1       1       0       1
 UBUDSVU SAVING "         STORAGE" ON UNIT  50 AT TIME STEP      9, STRESS PERIOD      7
 UBUDSV SAVING "     CLN STORAGE" ON UNIT 144 AT TIME STEP      9, STRESS PERIOD       7
 UBUDSVU SAVING "   CONSTANT HEAD" ON UNIT  50 AT TIME STEP      9, STRESS PERIOD      7
 UBUDSVU SAVING "   FLOW JA FACE " ON UNIT  50 AT TIME STEP      9, STRESS PERIOD      7
 UBUDSVU SAVING "             CLN" ON UNIT  50 AT TIME STEP      9, STRESS PERIOD      7
 UBUDSVU SAVING "  CLN CONST HEAD" ON UNIT 144 AT TIME STEP      9, STRESS PERIOD      7
 UBUDSVU SAVING "   FLOW CLN FACE" ON UNIT 144 AT TIME STEP      9, STRESS PERIOD      7
 UBUDSVU SAVING "             GWF" ON UNIT 144 AT TIME STEP      9, STRESS PERIOD      7
 UBUDSVU SAVING "           WELLS" ON UNIT  50 AT TIME STEP      9, STRESS PERIOD      7
 UBUDSVU SAVING "           WELLS" ON UNIT 144 AT TIME STEP      9, STRESS PERIOD      7

 HEAD WILL BE SAVED ON UNIT       30 AT END OF TIME STEP        9, STRESS PERIOD        7

 DRAWDOWN WILL BE SAVED ON UNIT   31 AT END OF TIME STEP   9, STRESS PERIOD    7

 CLN HEAD WILL BE SAVED ON UNIT   77 AT END OF TIME STEP   9, STRESS PERIOD    7
1
  VOLUMETRIC BUDGET FOR ENTIRE MODEL AT END OF TIME STEP       9 IN STRESS PERIOD       7
  ---------------------------------------------------------------------------------------

     CUMULATIVE VOLUMES      L**3       RATES FOR THIS TIME STEP      L**3/T
     ------------------                 ------------------------

           IN:                                      IN:
           ---                                      ---
             STORAGE =        1020.1846               STORAGE =           5.0000
         CLN STORAGE =           0.0000           CLN STORAGE =           0.0000
       CONSTANT HEAD =           0.0000         CONSTANT HEAD =           0.0000
      CLN CONST HEAD =           0.0000        CLN CONST HEAD =           0.0000
               WELLS =           0.0000                 WELLS =           0.0000

            TOTAL IN =        1020.1846              TOTAL IN =           5.0000

          OUT:                                     OUT:
          ----                                     ----
             STORAGE =           0.0000               STORAGE =           0.0000
         CLN STORAGE =           0.0000           CLN STORAGE =           0.0000
       CONSTANT HEAD =           0.0000         CONSTANT HEAD =           0.0000
      CLN CONST HEAD =           0.0000        CLN CONST HEAD =           0.0000
               WELLS =        1020.1846                 WELLS =           5.0000

           TOTAL OUT =        1020.1846             TOTAL OUT =           5.0000

            IN - OUT =       1.0545E-05              IN - OUT =       9.6228E-08

 PERCENT DISCREPANCY =           0.00     PERCENT DISCREPANCY =           0.00






          TIME SUMMARY AT END OF TIME STEP         9 IN STRESS PERIOD         7
                    SECONDS     MINUTES      HOURS       DAYS        YEARS
                    -----------------------------------------------------------
   TIME STEP LENGTH 4.29341E+05  7155.7      119.26      4.9692     1.36050E-02
 STRESS PERIOD TIME 2.07679E+06  34613.      576.89      24.037     6.58095E-02
         TOTAL TIME 1.76288E+07 2.93813E+05  4896.9      204.04     0.55862    
1
 ------------------------------------------------------------------------------------------------------------
 
 SOLVING FOR TRANSPORT 

 ------------------------------------------------------------------------------------------------------------------------
     1 CALLS TO SPARSE MATRIX SOLVER PACKAGE IN TRANSPORT TIME STEP       9 STRESS PERIOD       7 SPECIES  1

 TOTAL OF       1OUTER ITERATIONS
  MAXIMUM CHANGE FOR EACH ITERATION:
   MAX. CHANGE        NODE  MAX. CHANGE        NODE  MAX. CHANGE        NODE  MAX. CHANGE        NODE  MAX. CHANGE        NODE
 ------------------------------------------------------------------------------------------------------------------------------------
   0.11400E-09,        191

  MAXIMUM CHANGE FOR CLN NODE AT EACH ITERATION:
   MAX. CHANGE    CLN-CELL  MAX. CHANGE    CLN-CELL  MAX. CHANGE    CLN-CELL  MAX. CHANGE    CLN-CELL  MAX. CHANGE    CLN-CELL
 ------------------------------------------------------------------------------------------------------------------------------------
  -0.77475E-09,          3
     TRANSPORT SOLUTION COMPLETE FOR COMPONENT SPECIES NUMBER    1
     ------------------------------------------------------------
 UBUDSVU SAVING "    MASS STORAGE" ON UNIT 145 AT TIME STEP      9, STRESS PERIOD      7
 UBUDSVU SAVING "CLN MASS STORAGE" ON UNIT 145 AT TIME STEP      9, STRESS PERIOD      7
 UBUDSVU SAVING "CNST H MASS FLUX" ON UNIT 145 AT TIME STEP      9, STRESS PERIOD      7
 UBUDSVU SAVING "  WELL MASS FLUX" ON UNIT 145 AT TIME STEP      9, STRESS PERIOD      7

 TRANSPORT SOLUTION COMPLETE FOR ALL SPECIES, SORTING OUTPUT FOR CONCENTRATIONS AND MASS BALANCE
 ----------------------------------------------------------------------------------------------------
     TRANSPORT OUTPUT FOR COMPONENT SPECIES NUMBER    1
     ------------------------------------------------------------

 CONC WILL BE SAVED ON UNIT  132 AT END OF TIME STEP        9, STRESS PERIOD        7

 CLN CONC WILL BE SAVED ON UNIT  188 AT END OF TIME STEP   9, STRESS PERIOD    7
1
  VOLUMETRIC BUDGET FOR ENTIRE MODEL AT END OF TIME STEP       9 IN STRESS PERIOD       7
  ---------------------------------------------------------------------------------------

     CUMULATIVE VOLUMES      L**3       RATES FOR THIS TIME STEP      L**3/T
     ------------------                 ------------------------

           IN:                                      IN:
           ---                                      ---
        MASS STORAGE =         102.0185          MASS STORAGE =           0.5000
    CNST H MASS FLUX =           0.0000      CNST H MASS FLUX =           0.0000
      WELL MASS FLUX =           0.0000        WELL MASS FLUX =           0.0000

            TOTAL IN =         102.0185              TOTAL IN =           0.5000

          OUT:                                     OUT:
          ----                                     ----
        MASS STORAGE =           0.2827          MASS STORAGE =           0.0000
    CNST H MASS FLUX =           0.0000      CNST H MASS FLUX =           0.0000
      WELL MASS FLUX =         101.7357        WELL MASS FLUX =           0.5000

           TOTAL OUT =         102.0185             TOTAL OUT =           0.5000

            IN - OUT =       1.0724E-10              IN - OUT =           0.0000

 PERCENT DISCREPANCY =           0.00     PERCENT DISCREPANCY =           0.00






          TIME SUMMARY AT END OF TIME STEP         9 IN STRESS PERIOD         7
                    SECONDS     MINUTES      HOURS       DAYS        YEARS
                    -----------------------------------------------------------
   TIME STEP LENGTH 4.29341E+05  7155.7      119.26      4.9692     1.36050E-02
 STRESS PERIOD TIME 2.07679E+06  34613.      576.89      24.037     6.58095E-02
         TOTAL TIME 1.76288E+07 2.93813E+05  4896.9      204.04     0.55862    
1
 -------------------------------------------------------------------------------------
 
 SOLVING FOR HEAD 

 Outer-Iteration  Inner-Iteration  Backtracking  Number of        Incoming       Outgoing  Maximum HeadChange      Maximum Head Change
     Number           Count           Flag       Backtracks       Residual       Residual           Value              Location
        1                             0             0          0.419838E-01     0.419838E-01
        1                7                                                                       -0.298035                     1           GWF-node number
        1                7                                                                       -0.278799                     3           CLN-node number
        2                             0             0          0.158137E-13     0.158137E-13
        2                1                                                                       -0.754612E-07               190           GWF-node number
        2                1                                                                       -0.207026E-06                 3           CLN-node number
     2 CALLS TO SPARSE MATRIX SOLVER PACKAGE  IN FLOW TIME STEP      10 STRESS PERIOD       7

 TOTAL OF       2OUTER ITERATIONS
  MAXIMUM CHANGE FOR EACH ITERATION:
   MAX. CHANGE        NODE  MAX. CHANGE        NODE  MAX. CHANGE        NODE  MAX. CHANGE        NODE  MAX. CHANGE        NODE
 ------------------------------------------------------------------------------------------------------------------------------------
  -0.29803    ,          1 -0.75461E-07,        190

  MAXIMUM CHANGE FOR CLN NODE AT EACH ITERATION:
   MAX. CHANGE    CLN-CELL  MAX. CHANGE    CLN-CELL  MAX. CHANGE    CLN-CELL  MAX. CHANGE    CLN-CELL  MAX. CHANGE    CLN-CELL
 ------------------------------------------------------------------------------------------------------------------------------------
  -0.27880    ,          3 -0.20703E-06,          3

 HEAD/DRAWDOWN PRINTOUT FLAG = 1     TOTAL BUDGET PRINTOUT FLAG = 1
 CELL-BY-CELL FLOW TERM FLAG = 1
 CONCENTRATION PRINTOUT FLAG = 1

 OUTPUT FLAGS FOR ALL LAYERS ARE THE SAME:
   HEAD    DRAWDOWN  HEAD  DRAWDOWN    CONC    CONC
 PRINTOUT  PRINTOUT  SAVE    SAVE    PRINTOUT  SAVE
 ---------------------------------------------------
     0         0       1       1       0       1
 UBUDSVU SAVING "         STORAGE" ON UNIT  50 AT TIME STEP     10, STRESS PERIOD      7
 UBUDSV SAVING "     CLN STORAGE" ON UNIT 144 AT TIME STEP     10, STRESS PERIOD       7
 UBUDSVU SAVING "   CONSTANT HEAD" ON UNIT  50 AT TIME STEP     10, STRESS PERIOD      7
 UBUDSVU SAVING "   FLOW JA FACE " ON UNIT  50 AT TIME STEP     10, STRESS PERIOD      7
 UBUDSVU SAVING "             CLN" ON UNIT  50 AT TIME STEP     10, STRESS PERIOD      7
 UBUDSVU SAVING "  CLN CONST HEAD" ON UNIT 144 AT TIME STEP     10, STRESS PERIOD      7
 UBUDSVU SAVING "   FLOW CLN FACE" ON UNIT 144 AT TIME STEP     10, STRESS PERIOD      7
 UBUDSVU SAVING "             GWF" ON UNIT 144 AT TIME STEP     10, STRESS PERIOD      7
 UBUDSVU SAVING "           WELLS" ON UNIT  50 AT TIME STEP     10, STRESS PERIOD      7
 UBUDSVU SAVING "           WELLS" ON UNIT 144 AT TIME STEP     10, STRESS PERIOD      7

 HEAD WILL BE SAVED ON UNIT       30 AT END OF TIME STEP       10, STRESS PERIOD        7

 DRAWDOWN WILL BE SAVED ON UNIT   31 AT END OF TIME STEP  10, STRESS PERIOD    7

 CLN HEAD WILL BE SAVED ON UNIT   77 AT END OF TIME STEP  10, STRESS PERIOD    7
1
  VOLUMETRIC BUDGET FOR ENTIRE MODEL AT END OF TIME STEP      10 IN STRESS PERIOD       7
  ---------------------------------------------------------------------------------------

     CUMULATIVE VOLUMES      L**3       RATES FOR THIS TIME STEP      L**3/T
     ------------------                 ------------------------

           IN:                                      IN:
           ---                                      ---
             STORAGE =        1050.0000               STORAGE =           5.0000
         CLN STORAGE =           0.0000           CLN STORAGE =           0.0000
       CONSTANT HEAD =           0.0000         CONSTANT HEAD =           0.0000
      CLN CONST HEAD =           0.0000        CLN CONST HEAD =           0.0000
               WELLS =           0.0000                 WELLS =           0.0000

            TOTAL IN =        1050.0000              TOTAL IN =           5.0000

          OUT:                                     OUT:
          ----                                     ----
             STORAGE =           0.0000               STORAGE =           0.0000
         CLN STORAGE =           0.0000           CLN STORAGE =           0.0000
       CONSTANT HEAD =           0.0000         CONSTANT HEAD =           0.0000
      CLN CONST HEAD =           0.0000        CLN CONST HEAD =           0.0000
               WELLS =        1050.0000                 WELLS =           5.0000

           TOTAL OUT =        1050.0000             TOTAL OUT =           5.0000

            IN - OUT =       1.0674E-05              IN - OUT =       2.1621E-08

 PERCENT DISCREPANCY =           0.00     PERCENT DISCREPANCY =           0.00






          TIME SUMMARY AT END OF TIME STEP        10 IN STRESS PERIOD         7
                    SECONDS     MINUTES      HOURS       DAYS        YEARS
                    -----------------------------------------------------------
   TIME STEP LENGTH 5.15209E+05  8586.8      143.11      5.9631     1.63260E-02
 STRESS PERIOD TIME 2.59200E+06  43200.      720.00      30.000     8.21355E-02
         TOTAL TIME 1.81440E+07 3.02400E+05  5040.0      210.00     0.57495    
1
 ------------------------------------------------------------------------------------------------------------
 
 SOLVING FOR TRANSPORT 

 ------------------------------------------------------------------------------------------------------------------------
     1 CALLS TO SPARSE MATRIX SOLVER PACKAGE IN TRANSPORT TIME STEP      10 STRESS PERIOD       7 SPECIES  1

 TOTAL OF       1OUTER ITERATIONS
  MAXIMUM CHANGE FOR EACH ITERATION:
   MAX. CHANGE        NODE  MAX. CHANGE        NODE  MAX. CHANGE        NODE  MAX. CHANGE        NODE  MAX. CHANGE        NODE
 ------------------------------------------------------------------------------------------------------------------------------------
  -0.60276E-10,        191

  MAXIMUM CHANGE FOR CLN NODE AT EACH ITERATION:
   MAX. CHANGE    CLN-CELL  MAX. CHANGE    CLN-CELL  MAX. CHANGE    CLN-CELL  MAX. CHANGE    CLN-CELL  MAX. CHANGE    CLN-CELL
 ------------------------------------------------------------------------------------------------------------------------------------
   0.17476E-08,          3
     TRANSPORT SOLUTION COMPLETE FOR COMPONENT SPECIES NUMBER    1
     ------------------------------------------------------------
 UBUDSVU SAVING "    MASS STORAGE" ON UNIT 145 AT TIME STEP     10, STRESS PERIOD      7
 UBUDSVU SAVING "CLN MASS STORAGE" ON UNIT 145 AT TIME STEP     10, STRESS PERIOD      7
 UBUDSVU SAVING "CNST H MASS FLUX" ON UNIT 145 AT TIME STEP     10, STRESS PERIOD      7
 UBUDSVU SAVING "  WELL MASS FLUX" ON UNIT 145 AT TIME STEP     10, STRESS PERIOD      7

 TRANSPORT SOLUTION COMPLETE FOR ALL SPECIES, SORTING OUTPUT FOR CONCENTRATIONS AND MASS BALANCE
 ----------------------------------------------------------------------------------------------------
     TRANSPORT OUTPUT FOR COMPONENT SPECIES NUMBER    1
     ------------------------------------------------------------

 CONC WILL BE SAVED ON UNIT  132 AT END OF TIME STEP       10, STRESS PERIOD        7

 CLN CONC WILL BE SAVED ON UNIT  188 AT END OF TIME STEP  10, STRESS PERIOD    7
1
  VOLUMETRIC BUDGET FOR ENTIRE MODEL AT END OF TIME STEP      10 IN STRESS PERIOD       7
  ---------------------------------------------------------------------------------------

     CUMULATIVE VOLUMES      L**3       RATES FOR THIS TIME STEP      L**3/T
     ------------------                 ------------------------

           IN:                                      IN:
           ---                                      ---
        MASS STORAGE =         105.0000          MASS STORAGE =           0.5000
    CNST H MASS FLUX =           0.0000      CNST H MASS FLUX =           0.0000
      WELL MASS FLUX =           0.0000        WELL MASS FLUX =           0.0000

            TOTAL IN =         105.0000              TOTAL IN =           0.5000

          OUT:                                     OUT:
          ----                                     ----
        MASS STORAGE =           0.2827          MASS STORAGE =       5.5802E-10
    CNST H MASS FLUX =           0.0000      CNST H MASS FLUX =           0.0000
      WELL MASS FLUX =         104.7173        WELL MASS FLUX =           0.5000

           TOTAL OUT =         105.0000             TOTAL OUT =           0.5000

            IN - OUT =       4.8075E-11              IN - OUT =      -5.5802E-10

 PERCENT DISCREPANCY =           0.00     PERCENT DISCREPANCY =          -0.00






          TIME SUMMARY AT END OF TIME STEP        10 IN STRESS PERIOD         7
                    SECONDS     MINUTES      HOURS       DAYS        YEARS
                    -----------------------------------------------------------
   TIME STEP LENGTH 5.15209E+05  8586.8      143.11      5.9631     1.63260E-02
 STRESS PERIOD TIME 2.59200E+06  43200.      720.00      30.000     8.21355E-02
         TOTAL TIME 1.81440E+07 3.02400E+05  5040.0      210.00     0.57495    
1
1
                            STRESS PERIOD NO.    8, LENGTH =   30.00000    
                            -----------------------------------------------

                              NUMBER OF TIME STEPS =        10

                               MULTIPLIER FOR DELT =     1.200

                            INITIAL TIME STEP SIZE =   1.155682    

 WEL -- WELL PACKAGE, VERSION 7, 5/2/2005 INPUT READ FROM UNIT   12

 WELL NO.  CLN-NODE       STRESS FACTOR         C01             
 ---------------------------------------------------------------
        1            3      -5.000           0.000           0.000    

      1 WELL 
 -------------------------------------------------------------------------------------
 
 SOLVING FOR HEAD 

 Outer-Iteration  Inner-Iteration  Backtracking  Number of        Incoming       Outgoing  Maximum HeadChange      Maximum Head Change
     Number           Count           Flag       Backtracks       Residual       Residual           Value              Location
        1                             0             0          0.417885E-01     0.417885E-01
        1                5                                                                       -0.577234E-01                 1           GWF-node number
        1                5                                                                       -0.540008E-01                 1           CLN-node number
        2                             0             0          0.209510E-13     0.209510E-13
        2                1                                                                       -0.241848E-07               190           GWF-node number
        2                1                                                                       -0.660713E-07                 2           CLN-node number


     2 CALLS TO SPARSE MATRIX SOLVER PACKAGE  IN FLOW TIME STEP       1 STRESS PERIOD       8

 TOTAL OF       2OUTER ITERATIONS
  MAXIMUM CHANGE FOR EACH ITERATION:
   MAX. CHANGE        NODE  MAX. CHANGE        NODE  MAX. CHANGE        NODE  MAX. CHANGE        NODE  MAX. CHANGE        NODE
 ------------------------------------------------------------------------------------------------------------------------------------
  -0.57723E-01,          1 -0.24185E-07,        190

  MAXIMUM CHANGE FOR CLN NODE AT EACH ITERATION:
   MAX. CHANGE    CLN-CELL  MAX. CHANGE    CLN-CELL  MAX. CHANGE    CLN-CELL  MAX. CHANGE    CLN-CELL  MAX. CHANGE    CLN-CELL
 ------------------------------------------------------------------------------------------------------------------------------------
  -0.54001E-01,          1 -0.66071E-07,          2

 HEAD/DRAWDOWN PRINTOUT FLAG = 1     TOTAL BUDGET PRINTOUT FLAG = 1
 CELL-BY-CELL FLOW TERM FLAG = 1
 CONCENTRATION PRINTOUT FLAG = 1

 OUTPUT FLAGS FOR ALL LAYERS ARE THE SAME:
   HEAD    DRAWDOWN  HEAD  DRAWDOWN    CONC    CONC
 PRINTOUT  PRINTOUT  SAVE    SAVE    PRINTOUT  SAVE
 ---------------------------------------------------
     0         0       1       1       0       1
 UBUDSVU SAVING "         STORAGE" ON UNIT  50 AT TIME STEP      1, STRESS PERIOD      8
 UBUDSV SAVING "     CLN STORAGE" ON UNIT 144 AT TIME STEP      1, STRESS PERIOD       8
 UBUDSVU SAVING "   CONSTANT HEAD" ON UNIT  50 AT TIME STEP      1, STRESS PERIOD      8
 UBUDSVU SAVING "   FLOW JA FACE " ON UNIT  50 AT TIME STEP      1, STRESS PERIOD      8
 UBUDSVU SAVING "             CLN" ON UNIT  50 AT TIME STEP      1, STRESS PERIOD      8
 UBUDSVU SAVING "  CLN CONST HEAD" ON UNIT 144 AT TIME STEP      1, STRESS PERIOD      8
 UBUDSVU SAVING "   FLOW CLN FACE" ON UNIT 144 AT TIME STEP      1, STRESS PERIOD      8
 UBUDSVU SAVING "             GWF" ON UNIT 144 AT TIME STEP      1, STRESS PERIOD      8
 UBUDSVU SAVING "           WELLS" ON UNIT  50 AT TIME STEP      1, STRESS PERIOD      8
 UBUDSVU SAVING "           WELLS" ON UNIT 144 AT TIME STEP      1, STRESS PERIOD      8

 HEAD WILL BE SAVED ON UNIT       30 AT END OF TIME STEP        1, STRESS PERIOD        8

 DRAWDOWN WILL BE SAVED ON UNIT   31 AT END OF TIME STEP   1, STRESS PERIOD    8

 CLN HEAD WILL BE SAVED ON UNIT   77 AT END OF TIME STEP   1, STRESS PERIOD    8
1
  VOLUMETRIC BUDGET FOR ENTIRE MODEL AT END OF TIME STEP       1 IN STRESS PERIOD       8
  ---------------------------------------------------------------------------------------

     CUMULATIVE VOLUMES      L**3       RATES FOR THIS TIME STEP      L**3/T
     ------------------                 ------------------------

           IN:                                      IN:
           ---                                      ---
             STORAGE =        1055.7784               STORAGE =           5.0000
         CLN STORAGE =           0.0000           CLN STORAGE =           0.0000
       CONSTANT HEAD =           0.0000         CONSTANT HEAD =           0.0000
      CLN CONST HEAD =           0.0000        CLN CONST HEAD =           0.0000
               WELLS =           0.0000                 WELLS =           0.0000

            TOTAL IN =        1055.7784              TOTAL IN =           5.0000

          OUT:                                     OUT:
          ----                                     ----
             STORAGE =           0.0000               STORAGE =           0.0000
         CLN STORAGE =           0.0000           CLN STORAGE =           0.0000
       CONSTANT HEAD =           0.0000         CONSTANT HEAD =           0.0000
      CLN CONST HEAD =           0.0000        CLN CONST HEAD =           0.0000
               WELLS =        1055.7784                 WELLS =           5.0000

           TOTAL OUT =        1055.7784             TOTAL OUT =           5.0000

            IN - OUT =       1.0728E-05              IN - OUT =       4.6557E-08

 PERCENT DISCREPANCY =           0.00     PERCENT DISCREPANCY =           0.00






          TIME SUMMARY AT END OF TIME STEP         1 IN STRESS PERIOD         8
                    SECONDS     MINUTES      HOURS       DAYS        YEARS
                    -----------------------------------------------------------
   TIME STEP LENGTH  99851.      1664.2      27.736      1.1557     3.16409E-03
 STRESS PERIOD TIME  99851.      1664.2      27.736      1.1557     3.16409E-03
         TOTAL TIME 1.82438E+07 3.04064E+05  5067.7      211.16     0.57811    
1
 ------------------------------------------------------------------------------------------------------------
 
 SOLVING FOR TRANSPORT 

 ------------------------------------------------------------------------------------------------------------------------
     1 CALLS TO SPARSE MATRIX SOLVER PACKAGE IN TRANSPORT TIME STEP       1 STRESS PERIOD       8 SPECIES  1

 TOTAL OF       1OUTER ITERATIONS
  MAXIMUM CHANGE FOR EACH ITERATION:
   MAX. CHANGE        NODE  MAX. CHANGE        NODE  MAX. CHANGE        NODE  MAX. CHANGE        NODE  MAX. CHANGE        NODE
 ------------------------------------------------------------------------------------------------------------------------------------
  -0.41496E-11,        191

  MAXIMUM CHANGE FOR CLN NODE AT EACH ITERATION:
   MAX. CHANGE    CLN-CELL  MAX. CHANGE    CLN-CELL  MAX. CHANGE    CLN-CELL  MAX. CHANGE    CLN-CELL  MAX. CHANGE    CLN-CELL
 ------------------------------------------------------------------------------------------------------------------------------------
   0.42868E-09,          2
     TRANSPORT SOLUTION COMPLETE FOR COMPONENT SPECIES NUMBER    1
     ------------------------------------------------------------
 UBUDSVU SAVING "    MASS STORAGE" ON UNIT 145 AT TIME STEP      1, STRESS PERIOD      8
 UBUDSVU SAVING "CLN MASS STORAGE" ON UNIT 145 AT TIME STEP      1, STRESS PERIOD      8
 UBUDSVU SAVING "CNST H MASS FLUX" ON UNIT 145 AT TIME STEP      1, STRESS PERIOD      8
 UBUDSVU SAVING "  WELL MASS FLUX" ON UNIT 145 AT TIME STEP      1, STRESS PERIOD      8

 TRANSPORT SOLUTION COMPLETE FOR ALL SPECIES, SORTING OUTPUT FOR CONCENTRATIONS AND MASS BALANCE
 ----------------------------------------------------------------------------------------------------
     TRANSPORT OUTPUT FOR COMPONENT SPECIES NUMBER    1
     ------------------------------------------------------------

 CONC WILL BE SAVED ON UNIT  132 AT END OF TIME STEP        1, STRESS PERIOD        8

 CLN CONC WILL BE SAVED ON UNIT  188 AT END OF TIME STEP   1, STRESS PERIOD    8
1
  VOLUMETRIC BUDGET FOR ENTIRE MODEL AT END OF TIME STEP       1 IN STRESS PERIOD       8
  ---------------------------------------------------------------------------------------

     CUMULATIVE VOLUMES      L**3       RATES FOR THIS TIME STEP      L**3/T
     ------------------                 ------------------------

           IN:                                      IN:
           ---                                      ---
        MASS STORAGE =         105.5778          MASS STORAGE =           0.5000
    CNST H MASS FLUX =           0.0000      CNST H MASS FLUX =           0.0000
      WELL MASS FLUX =           0.0000        WELL MASS FLUX =           0.0000

            TOTAL IN =         105.5778              TOTAL IN =           0.5000

          OUT:                                     OUT:
          ----                                     ----
        MASS STORAGE =           0.2827          MASS STORAGE =       2.6220E-11
    CNST H MASS FLUX =           0.0000      CNST H MASS FLUX =           0.0000
      WELL MASS FLUX =         105.2951        WELL MASS FLUX =           0.5000

           TOTAL OUT =         105.5778             TOTAL OUT =           0.5000

            IN - OUT =       4.8004E-11              IN - OUT =      -2.6220E-11

 PERCENT DISCREPANCY =           0.00     PERCENT DISCREPANCY =          -0.00






          TIME SUMMARY AT END OF TIME STEP         1 IN STRESS PERIOD         8
                    SECONDS     MINUTES      HOURS       DAYS        YEARS
                    -----------------------------------------------------------
   TIME STEP LENGTH  99851.      1664.2      27.736      1.1557     3.16409E-03
 STRESS PERIOD TIME  99851.      1664.2      27.736      1.1557     3.16409E-03
         TOTAL TIME 1.82438E+07 3.04064E+05  5067.7      211.16     0.57811    
1
 -------------------------------------------------------------------------------------
 
 SOLVING FOR HEAD 

 Outer-Iteration  Inner-Iteration  Backtracking  Number of        Incoming       Outgoing  Maximum HeadChange      Maximum Head Change
     Number           Count           Flag       Backtracks       Residual       Residual           Value              Location
        1                             0             0          0.417509E-01     0.417509E-01
        1                5                                                                       -0.692142E-01                 1           GWF-node number
        1                5                                                                       -0.647550E-01                 1           CLN-node number
        2                             0             0          0.453625E-14     0.453625E-14
        2                1                                                                       -0.671533E-08               406           GWF-node number
        2                1                                                                        0.986709E-08                 1           CLN-node number
     2 CALLS TO SPARSE MATRIX SOLVER PACKAGE  IN FLOW TIME STEP       2 STRESS PERIOD       8

 TOTAL OF       2OUTER ITERATIONS
  MAXIMUM CHANGE FOR EACH ITERATION:
   MAX. CHANGE        NODE  MAX. CHANGE        NODE  MAX. CHANGE        NODE  MAX. CHANGE        NODE  MAX. CHANGE        NODE
 ------------------------------------------------------------------------------------------------------------------------------------
  -0.69214E-01,          1 -0.67153E-08,        406

  MAXIMUM CHANGE FOR CLN NODE AT EACH ITERATION:
   MAX. CHANGE    CLN-CELL  MAX. CHANGE    CLN-CELL  MAX. CHANGE    CLN-CELL  MAX. CHANGE    CLN-CELL  MAX. CHANGE    CLN-CELL
 ------------------------------------------------------------------------------------------------------------------------------------
  -0.64755E-01,          1  0.98671E-08,          1

 HEAD/DRAWDOWN PRINTOUT FLAG = 1     TOTAL BUDGET PRINTOUT FLAG = 1
 CELL-BY-CELL FLOW TERM FLAG = 1
 CONCENTRATION PRINTOUT FLAG = 1

 OUTPUT FLAGS FOR ALL LAYERS ARE THE SAME:
   HEAD    DRAWDOWN  HEAD  DRAWDOWN    CONC    CONC
 PRINTOUT  PRINTOUT  SAVE    SAVE    PRINTOUT  SAVE
 ---------------------------------------------------
     0         0       1       1       0       1
 UBUDSVU SAVING "         STORAGE" ON UNIT  50 AT TIME STEP      2, STRESS PERIOD      8
 UBUDSV SAVING "     CLN STORAGE" ON UNIT 144 AT TIME STEP      2, STRESS PERIOD       8
 UBUDSVU SAVING "   CONSTANT HEAD" ON UNIT  50 AT TIME STEP      2, STRESS PERIOD      8
 UBUDSVU SAVING "   FLOW JA FACE " ON UNIT  50 AT TIME STEP      2, STRESS PERIOD      8
 UBUDSVU SAVING "             CLN" ON UNIT  50 AT TIME STEP      2, STRESS PERIOD      8
 UBUDSVU SAVING "  CLN CONST HEAD" ON UNIT 144 AT TIME STEP      2, STRESS PERIOD      8
 UBUDSVU SAVING "   FLOW CLN FACE" ON UNIT 144 AT TIME STEP      2, STRESS PERIOD      8
 UBUDSVU SAVING "             GWF" ON UNIT 144 AT TIME STEP      2, STRESS PERIOD      8
 UBUDSVU SAVING "           WELLS" ON UNIT  50 AT TIME STEP      2, STRESS PERIOD      8
 UBUDSVU SAVING "           WELLS" ON UNIT 144 AT TIME STEP      2, STRESS PERIOD      8

 HEAD WILL BE SAVED ON UNIT       30 AT END OF TIME STEP        2, STRESS PERIOD        8

 DRAWDOWN WILL BE SAVED ON UNIT   31 AT END OF TIME STEP   2, STRESS PERIOD    8

 CLN HEAD WILL BE SAVED ON UNIT   77 AT END OF TIME STEP   2, STRESS PERIOD    8
1
  VOLUMETRIC BUDGET FOR ENTIRE MODEL AT END OF TIME STEP       2 IN STRESS PERIOD       8
  ---------------------------------------------------------------------------------------

     CUMULATIVE VOLUMES      L**3       RATES FOR THIS TIME STEP      L**3/T
     ------------------                 ------------------------

           IN:                                      IN:
           ---                                      ---
             STORAGE =        1062.7125               STORAGE =           5.0000
         CLN STORAGE =           0.0000           CLN STORAGE =           0.0000
       CONSTANT HEAD =           0.0000         CONSTANT HEAD =           0.0000
      CLN CONST HEAD =           0.0000        CLN CONST HEAD =           0.0000
               WELLS =           0.0000                 WELLS =           0.0000

            TOTAL IN =        1062.7125              TOTAL IN =           5.0000

          OUT:                                     OUT:
          ----                                     ----
             STORAGE =           0.0000               STORAGE =           0.0000
         CLN STORAGE =           0.0000           CLN STORAGE =           0.0000
       CONSTANT HEAD =           0.0000         CONSTANT HEAD =           0.0000
      CLN CONST HEAD =           0.0000        CLN CONST HEAD =           0.0000
               WELLS =        1062.7125                 WELLS =           5.0000

           TOTAL OUT =        1062.7125             TOTAL OUT =           5.0000

            IN - OUT =       1.0771E-05              IN - OUT =       3.0593E-08

 PERCENT DISCREPANCY =           0.00     PERCENT DISCREPANCY =           0.00






          TIME SUMMARY AT END OF TIME STEP         2 IN STRESS PERIOD         8
                    SECONDS     MINUTES      HOURS       DAYS        YEARS
                    -----------------------------------------------------------
   TIME STEP LENGTH 1.19821E+05  1997.0      33.284      1.3868     3.79690E-03
 STRESS PERIOD TIME 2.19672E+05  3661.2      61.020      2.5425     6.96099E-03
         TOTAL TIME 1.83637E+07 3.06061E+05  5101.0      212.54     0.58191    
1
 ------------------------------------------------------------------------------------------------------------
 
 SOLVING FOR TRANSPORT 

 ------------------------------------------------------------------------------------------------------------------------
     1 CALLS TO SPARSE MATRIX SOLVER PACKAGE IN TRANSPORT TIME STEP       2 STRESS PERIOD       8 SPECIES  1

 TOTAL OF       1OUTER ITERATIONS
  MAXIMUM CHANGE FOR EACH ITERATION:
   MAX. CHANGE        NODE  MAX. CHANGE        NODE  MAX. CHANGE        NODE  MAX. CHANGE        NODE  MAX. CHANGE        NODE
 ------------------------------------------------------------------------------------------------------------------------------------
   0.13051E-11,        190

  MAXIMUM CHANGE FOR CLN NODE AT EACH ITERATION:
   MAX. CHANGE    CLN-CELL  MAX. CHANGE    CLN-CELL  MAX. CHANGE    CLN-CELL  MAX. CHANGE    CLN-CELL  MAX. CHANGE    CLN-CELL
 ------------------------------------------------------------------------------------------------------------------------------------
  -0.15561E-08,          2
     TRANSPORT SOLUTION COMPLETE FOR COMPONENT SPECIES NUMBER    1
     ------------------------------------------------------------
 UBUDSVU SAVING "    MASS STORAGE" ON UNIT 145 AT TIME STEP      2, STRESS PERIOD      8
 UBUDSVU SAVING "CLN MASS STORAGE" ON UNIT 145 AT TIME STEP      2, STRESS PERIOD      8
 UBUDSVU SAVING "CNST H MASS FLUX" ON UNIT 145 AT TIME STEP      2, STRESS PERIOD      8
 UBUDSVU SAVING "  WELL MASS FLUX" ON UNIT 145 AT TIME STEP      2, STRESS PERIOD      8

 TRANSPORT SOLUTION COMPLETE FOR ALL SPECIES, SORTING OUTPUT FOR CONCENTRATIONS AND MASS BALANCE
 ----------------------------------------------------------------------------------------------------
     TRANSPORT OUTPUT FOR COMPONENT SPECIES NUMBER    1
     ------------------------------------------------------------

 CONC WILL BE SAVED ON UNIT  132 AT END OF TIME STEP        2, STRESS PERIOD        8

 CLN CONC WILL BE SAVED ON UNIT  188 AT END OF TIME STEP   2, STRESS PERIOD    8
1
  VOLUMETRIC BUDGET FOR ENTIRE MODEL AT END OF TIME STEP       2 IN STRESS PERIOD       8
  ---------------------------------------------------------------------------------------

     CUMULATIVE VOLUMES      L**3       RATES FOR THIS TIME STEP      L**3/T
     ------------------                 ------------------------

           IN:                                      IN:
           ---                                      ---
        MASS STORAGE =         106.2712          MASS STORAGE =           0.5000
    CNST H MASS FLUX =           0.0000      CNST H MASS FLUX =           0.0000
      WELL MASS FLUX =           0.0000        WELL MASS FLUX =           0.0000

            TOTAL IN =         106.2712              TOTAL IN =           0.5000

          OUT:                                     OUT:
          ----                                     ----
        MASS STORAGE =           0.2827          MASS STORAGE =       3.6210E-11
    CNST H MASS FLUX =           0.0000      CNST H MASS FLUX =           0.0000
      WELL MASS FLUX =         105.9885        WELL MASS FLUX =           0.5000

           TOTAL OUT =         106.2712             TOTAL OUT =           0.5000

            IN - OUT =       4.7962E-11              IN - OUT =      -3.6210E-11

 PERCENT DISCREPANCY =           0.00     PERCENT DISCREPANCY =          -0.00






          TIME SUMMARY AT END OF TIME STEP         2 IN STRESS PERIOD         8
                    SECONDS     MINUTES      HOURS       DAYS        YEARS
                    -----------------------------------------------------------
   TIME STEP LENGTH 1.19821E+05  1997.0      33.284      1.3868     3.79690E-03
 STRESS PERIOD TIME 2.19672E+05  3661.2      61.020      2.5425     6.96099E-03
         TOTAL TIME 1.83637E+07 3.06061E+05  5101.0      212.54     0.58191    
1
 -------------------------------------------------------------------------------------
 
 SOLVING FOR HEAD 

 Outer-Iteration  Inner-Iteration  Backtracking  Number of        Incoming       Outgoing  Maximum HeadChange      Maximum Head Change
     Number           Count           Flag       Backtracks       Residual       Residual           Value              Location
        1                             0             0          0.417060E-01     0.417060E-01
        1                5                                                                       -0.829797E-01                 1           GWF-node number
        1                5                                                                       -0.776404E-01                 3           CLN-node number
        2                             0             0          0.313420E-14     0.313420E-14
        2                1                                                                       -0.197725E-07               406           GWF-node number
        2                1                                                                        0.229839E-07                 3           CLN-node number
     2 CALLS TO SPARSE MATRIX SOLVER PACKAGE  IN FLOW TIME STEP       3 STRESS PERIOD       8

 TOTAL OF       2OUTER ITERATIONS
  MAXIMUM CHANGE FOR EACH ITERATION:
   MAX. CHANGE        NODE  MAX. CHANGE        NODE  MAX. CHANGE        NODE  MAX. CHANGE        NODE  MAX. CHANGE        NODE
 ------------------------------------------------------------------------------------------------------------------------------------
  -0.82980E-01,          1 -0.19773E-07,        406

  MAXIMUM CHANGE FOR CLN NODE AT EACH ITERATION:
   MAX. CHANGE    CLN-CELL  MAX. CHANGE    CLN-CELL  MAX. CHANGE    CLN-CELL  MAX. CHANGE    CLN-CELL  MAX. CHANGE    CLN-CELL
 ------------------------------------------------------------------------------------------------------------------------------------
  -0.77640E-01,          3  0.22984E-07,          3

 HEAD/DRAWDOWN PRINTOUT FLAG = 1     TOTAL BUDGET PRINTOUT FLAG = 1
 CELL-BY-CELL FLOW TERM FLAG = 1
 CONCENTRATION PRINTOUT FLAG = 1

 OUTPUT FLAGS FOR ALL LAYERS ARE THE SAME:
   HEAD    DRAWDOWN  HEAD  DRAWDOWN    CONC    CONC
 PRINTOUT  PRINTOUT  SAVE    SAVE    PRINTOUT  SAVE
 ---------------------------------------------------
     0         0       1       1       0       1
 UBUDSVU SAVING "         STORAGE" ON UNIT  50 AT TIME STEP      3, STRESS PERIOD      8
 UBUDSV SAVING "     CLN STORAGE" ON UNIT 144 AT TIME STEP      3, STRESS PERIOD       8
 UBUDSVU SAVING "   CONSTANT HEAD" ON UNIT  50 AT TIME STEP      3, STRESS PERIOD      8
 UBUDSVU SAVING "   FLOW JA FACE " ON UNIT  50 AT TIME STEP      3, STRESS PERIOD      8
 UBUDSVU SAVING "             CLN" ON UNIT  50 AT TIME STEP      3, STRESS PERIOD      8
 UBUDSVU SAVING "  CLN CONST HEAD" ON UNIT 144 AT TIME STEP      3, STRESS PERIOD      8
 UBUDSVU SAVING "   FLOW CLN FACE" ON UNIT 144 AT TIME STEP      3, STRESS PERIOD      8
 UBUDSVU SAVING "             GWF" ON UNIT 144 AT TIME STEP      3, STRESS PERIOD      8
 UBUDSVU SAVING "           WELLS" ON UNIT  50 AT TIME STEP      3, STRESS PERIOD      8
 UBUDSVU SAVING "           WELLS" ON UNIT 144 AT TIME STEP      3, STRESS PERIOD      8

 HEAD WILL BE SAVED ON UNIT       30 AT END OF TIME STEP        3, STRESS PERIOD        8

 DRAWDOWN WILL BE SAVED ON UNIT   31 AT END OF TIME STEP   3, STRESS PERIOD    8

 CLN HEAD WILL BE SAVED ON UNIT   77 AT END OF TIME STEP   3, STRESS PERIOD    8
1
  VOLUMETRIC BUDGET FOR ENTIRE MODEL AT END OF TIME STEP       3 IN STRESS PERIOD       8
  ---------------------------------------------------------------------------------------

     CUMULATIVE VOLUMES      L**3       RATES FOR THIS TIME STEP      L**3/T
     ------------------                 ------------------------

           IN:                                      IN:
           ---                                      ---
             STORAGE =        1071.0334               STORAGE =           5.0000
         CLN STORAGE =           0.0000           CLN STORAGE =           0.0000
       CONSTANT HEAD =           0.0000         CONSTANT HEAD =           0.0000
      CLN CONST HEAD =           0.0000        CLN CONST HEAD =           0.0000
               WELLS =           0.0000                 WELLS =           0.0000

            TOTAL IN =        1071.0334              TOTAL IN =           5.0000

          OUT:                                     OUT:
          ----                                     ----
             STORAGE =           0.0000               STORAGE =           0.0000
         CLN STORAGE =           0.0000           CLN STORAGE =           0.0000
       CONSTANT HEAD =           0.0000         CONSTANT HEAD =           0.0000
      CLN CONST HEAD =           0.0000        CLN CONST HEAD =           0.0000
               WELLS =        1071.0334                 WELLS =           5.0000

           TOTAL OUT =        1071.0334             TOTAL OUT =           5.0000

            IN - OUT =       1.0894E-05              IN - OUT =       7.3931E-08

 PERCENT DISCREPANCY =           0.00     PERCENT DISCREPANCY =           0.00






          TIME SUMMARY AT END OF TIME STEP         3 IN STRESS PERIOD         8
                    SECONDS     MINUTES      HOURS       DAYS        YEARS
                    -----------------------------------------------------------
   TIME STEP LENGTH 1.43785E+05  2396.4      39.940      1.6642     4.55628E-03
 STRESS PERIOD TIME 3.63458E+05  6057.6      100.96      4.2067     1.15173E-02
         TOTAL TIME 1.85075E+07 3.08458E+05  5141.0      214.21     0.58647    
1
 ------------------------------------------------------------------------------------------------------------
 
 SOLVING FOR TRANSPORT 

 ------------------------------------------------------------------------------------------------------------------------
     1 CALLS TO SPARSE MATRIX SOLVER PACKAGE IN TRANSPORT TIME STEP       3 STRESS PERIOD       8 SPECIES  1

 TOTAL OF       1OUTER ITERATIONS
  MAXIMUM CHANGE FOR EACH ITERATION:
   MAX. CHANGE        NODE  MAX. CHANGE        NODE  MAX. CHANGE        NODE  MAX. CHANGE        NODE  MAX. CHANGE        NODE
 ------------------------------------------------------------------------------------------------------------------------------------
   0.14634E-11,        190

  MAXIMUM CHANGE FOR CLN NODE AT EACH ITERATION:
   MAX. CHANGE    CLN-CELL  MAX. CHANGE    CLN-CELL  MAX. CHANGE    CLN-CELL  MAX. CHANGE    CLN-CELL  MAX. CHANGE    CLN-CELL
 ------------------------------------------------------------------------------------------------------------------------------------
   0.17287E-08,          2
     TRANSPORT SOLUTION COMPLETE FOR COMPONENT SPECIES NUMBER    1
     ------------------------------------------------------------
 UBUDSVU SAVING "    MASS STORAGE" ON UNIT 145 AT TIME STEP      3, STRESS PERIOD      8
 UBUDSVU SAVING "CLN MASS STORAGE" ON UNIT 145 AT TIME STEP      3, STRESS PERIOD      8
 UBUDSVU SAVING "CNST H MASS FLUX" ON UNIT 145 AT TIME STEP      3, STRESS PERIOD      8
 UBUDSVU SAVING "  WELL MASS FLUX" ON UNIT 145 AT TIME STEP      3, STRESS PERIOD      8

 TRANSPORT SOLUTION COMPLETE FOR ALL SPECIES, SORTING OUTPUT FOR CONCENTRATIONS AND MASS BALANCE
 ----------------------------------------------------------------------------------------------------
     TRANSPORT OUTPUT FOR COMPONENT SPECIES NUMBER    1
     ------------------------------------------------------------

 CONC WILL BE SAVED ON UNIT  132 AT END OF TIME STEP        3, STRESS PERIOD        8

 CLN CONC WILL BE SAVED ON UNIT  188 AT END OF TIME STEP   3, STRESS PERIOD    8
1
  VOLUMETRIC BUDGET FOR ENTIRE MODEL AT END OF TIME STEP       3 IN STRESS PERIOD       8
  ---------------------------------------------------------------------------------------

     CUMULATIVE VOLUMES      L**3       RATES FOR THIS TIME STEP      L**3/T
     ------------------                 ------------------------

           IN:                                      IN:
           ---                                      ---
        MASS STORAGE =         107.1033          MASS STORAGE =           0.5000
    CNST H MASS FLUX =           0.0000      CNST H MASS FLUX =           0.0000
      WELL MASS FLUX =           0.0000        WELL MASS FLUX =           0.0000

            TOTAL IN =         107.1033              TOTAL IN =           0.5000

          OUT:                                     OUT:
          ----                                     ----
        MASS STORAGE =           0.2827          MASS STORAGE =       7.0695E-10
    CNST H MASS FLUX =           0.0000      CNST H MASS FLUX =           0.0000
      WELL MASS FLUX =         106.8206        WELL MASS FLUX =           0.5000

           TOTAL OUT =         107.1033             TOTAL OUT =           0.5000

            IN - OUT =       4.7905E-11              IN - OUT =      -7.0695E-10

 PERCENT DISCREPANCY =           0.00     PERCENT DISCREPANCY =          -0.00






          TIME SUMMARY AT END OF TIME STEP         3 IN STRESS PERIOD         8
                    SECONDS     MINUTES      HOURS       DAYS        YEARS
                    -----------------------------------------------------------
   TIME STEP LENGTH 1.43785E+05  2396.4      39.940      1.6642     4.55628E-03
 STRESS PERIOD TIME 3.63458E+05  6057.6      100.96      4.2067     1.15173E-02
         TOTAL TIME 1.85075E+07 3.08458E+05  5141.0      214.21     0.58647    
1
 -------------------------------------------------------------------------------------
 
 SOLVING FOR HEAD 

 Outer-Iteration  Inner-Iteration  Backtracking  Number of        Incoming       Outgoing  Maximum HeadChange      Maximum Head Change
     Number           Count           Flag       Backtracks       Residual       Residual           Value              Location
        1                             0             0          0.416523E-01     0.416523E-01
        1                5                                                                       -0.994651E-01                 1           GWF-node number
        1                5                                                                       -0.930737E-01                 1           CLN-node number
        2                             0             0          0.548878E-14     0.548878E-14
        2                1                                                                       -0.674743E-07               190           GWF-node number
        2                1                                                                       -0.115291E-06                 3           CLN-node number
     2 CALLS TO SPARSE MATRIX SOLVER PACKAGE  IN FLOW TIME STEP       4 STRESS PERIOD       8

 TOTAL OF       2OUTER ITERATIONS
  MAXIMUM CHANGE FOR EACH ITERATION:
   MAX. CHANGE        NODE  MAX. CHANGE        NODE  MAX. CHANGE        NODE  MAX. CHANGE        NODE  MAX. CHANGE        NODE
 ------------------------------------------------------------------------------------------------------------------------------------
  -0.99465E-01,          1 -0.67474E-07,        190

  MAXIMUM CHANGE FOR CLN NODE AT EACH ITERATION:
   MAX. CHANGE    CLN-CELL  MAX. CHANGE    CLN-CELL  MAX. CHANGE    CLN-CELL  MAX. CHANGE    CLN-CELL  MAX. CHANGE    CLN-CELL
 ------------------------------------------------------------------------------------------------------------------------------------
  -0.93074E-01,          1 -0.11529E-06,          3

 HEAD/DRAWDOWN PRINTOUT FLAG = 1     TOTAL BUDGET PRINTOUT FLAG = 1
 CELL-BY-CELL FLOW TERM FLAG = 1
 CONCENTRATION PRINTOUT FLAG = 1

 OUTPUT FLAGS FOR ALL LAYERS ARE THE SAME:
   HEAD    DRAWDOWN  HEAD  DRAWDOWN    CONC    CONC
 PRINTOUT  PRINTOUT  SAVE    SAVE    PRINTOUT  SAVE
 ---------------------------------------------------
     0         0       1       1       0       1
 UBUDSVU SAVING "         STORAGE" ON UNIT  50 AT TIME STEP      4, STRESS PERIOD      8
 UBUDSV SAVING "     CLN STORAGE" ON UNIT 144 AT TIME STEP      4, STRESS PERIOD       8
 UBUDSVU SAVING "   CONSTANT HEAD" ON UNIT  50 AT TIME STEP      4, STRESS PERIOD      8
 UBUDSVU SAVING "   FLOW JA FACE " ON UNIT  50 AT TIME STEP      4, STRESS PERIOD      8
 UBUDSVU SAVING "             CLN" ON UNIT  50 AT TIME STEP      4, STRESS PERIOD      8
 UBUDSVU SAVING "  CLN CONST HEAD" ON UNIT 144 AT TIME STEP      4, STRESS PERIOD      8
 UBUDSVU SAVING "   FLOW CLN FACE" ON UNIT 144 AT TIME STEP      4, STRESS PERIOD      8
 UBUDSVU SAVING "             GWF" ON UNIT 144 AT TIME STEP      4, STRESS PERIOD      8
 UBUDSVU SAVING "           WELLS" ON UNIT  50 AT TIME STEP      4, STRESS PERIOD      8
 UBUDSVU SAVING "           WELLS" ON UNIT 144 AT TIME STEP      4, STRESS PERIOD      8

 HEAD WILL BE SAVED ON UNIT       30 AT END OF TIME STEP        4, STRESS PERIOD        8

 DRAWDOWN WILL BE SAVED ON UNIT   31 AT END OF TIME STEP   4, STRESS PERIOD    8

 CLN HEAD WILL BE SAVED ON UNIT   77 AT END OF TIME STEP   4, STRESS PERIOD    8
1
  VOLUMETRIC BUDGET FOR ENTIRE MODEL AT END OF TIME STEP       4 IN STRESS PERIOD       8
  ---------------------------------------------------------------------------------------

     CUMULATIVE VOLUMES      L**3       RATES FOR THIS TIME STEP      L**3/T
     ------------------                 ------------------------

           IN:                                      IN:
           ---                                      ---
             STORAGE =        1081.0185               STORAGE =           5.0000
         CLN STORAGE =           0.0000           CLN STORAGE =           0.0000
       CONSTANT HEAD =           0.0000         CONSTANT HEAD =           0.0000
      CLN CONST HEAD =           0.0000        CLN CONST HEAD =           0.0000
               WELLS =           0.0000                 WELLS =           0.0000

            TOTAL IN =        1081.0185              TOTAL IN =           5.0000

          OUT:                                     OUT:
          ----                                     ----
             STORAGE =           0.0000               STORAGE =           0.0000
         CLN STORAGE =           0.0000           CLN STORAGE =           0.0000
       CONSTANT HEAD =           0.0000         CONSTANT HEAD =           0.0000
      CLN CONST HEAD =           0.0000        CLN CONST HEAD =           0.0000
               WELLS =        1081.0185                 WELLS =           5.0000

           TOTAL OUT =        1081.0185             TOTAL OUT =           5.0000

            IN - OUT =       1.0941E-05              IN - OUT =       2.3697E-08

 PERCENT DISCREPANCY =           0.00     PERCENT DISCREPANCY =           0.00






          TIME SUMMARY AT END OF TIME STEP         4 IN STRESS PERIOD         8
                    SECONDS     MINUTES      HOURS       DAYS        YEARS
                    -----------------------------------------------------------
   TIME STEP LENGTH 1.72542E+05  2875.7      47.928      1.9970     5.46754E-03
 STRESS PERIOD TIME 5.36000E+05  8933.3      148.89      6.2037     1.69848E-02
         TOTAL TIME 1.86800E+07 3.11333E+05  5188.9      216.20     0.59193    
1
 ------------------------------------------------------------------------------------------------------------
 
 SOLVING FOR TRANSPORT 

 ------------------------------------------------------------------------------------------------------------------------
     1 CALLS TO SPARSE MATRIX SOLVER PACKAGE IN TRANSPORT TIME STEP       4 STRESS PERIOD       8 SPECIES  1

 TOTAL OF       1OUTER ITERATIONS
  MAXIMUM CHANGE FOR EACH ITERATION:
   MAX. CHANGE        NODE  MAX. CHANGE        NODE  MAX. CHANGE        NODE  MAX. CHANGE        NODE  MAX. CHANGE        NODE
 ------------------------------------------------------------------------------------------------------------------------------------
  -0.11364E-10,        191

  MAXIMUM CHANGE FOR CLN NODE AT EACH ITERATION:
   MAX. CHANGE    CLN-CELL  MAX. CHANGE    CLN-CELL  MAX. CHANGE    CLN-CELL  MAX. CHANGE    CLN-CELL  MAX. CHANGE    CLN-CELL
 ------------------------------------------------------------------------------------------------------------------------------------
  -0.10585E-08,          2
     TRANSPORT SOLUTION COMPLETE FOR COMPONENT SPECIES NUMBER    1
     ------------------------------------------------------------
 UBUDSVU SAVING "    MASS STORAGE" ON UNIT 145 AT TIME STEP      4, STRESS PERIOD      8
 UBUDSVU SAVING "CLN MASS STORAGE" ON UNIT 145 AT TIME STEP      4, STRESS PERIOD      8
 UBUDSVU SAVING "CNST H MASS FLUX" ON UNIT 145 AT TIME STEP      4, STRESS PERIOD      8
 UBUDSVU SAVING "  WELL MASS FLUX" ON UNIT 145 AT TIME STEP      4, STRESS PERIOD      8

 TRANSPORT SOLUTION COMPLETE FOR ALL SPECIES, SORTING OUTPUT FOR CONCENTRATIONS AND MASS BALANCE
 ----------------------------------------------------------------------------------------------------
     TRANSPORT OUTPUT FOR COMPONENT SPECIES NUMBER    1
     ------------------------------------------------------------

 CONC WILL BE SAVED ON UNIT  132 AT END OF TIME STEP        4, STRESS PERIOD        8

 CLN CONC WILL BE SAVED ON UNIT  188 AT END OF TIME STEP   4, STRESS PERIOD    8
1
  VOLUMETRIC BUDGET FOR ENTIRE MODEL AT END OF TIME STEP       4 IN STRESS PERIOD       8
  ---------------------------------------------------------------------------------------

     CUMULATIVE VOLUMES      L**3       RATES FOR THIS TIME STEP      L**3/T
     ------------------                 ------------------------

           IN:                                      IN:
           ---                                      ---
        MASS STORAGE =         108.1019          MASS STORAGE =           0.5000
    CNST H MASS FLUX =           0.0000      CNST H MASS FLUX =           0.0000
      WELL MASS FLUX =           0.0000        WELL MASS FLUX =           0.0000

            TOTAL IN =         108.1019              TOTAL IN =           0.5000

          OUT:                                     OUT:
          ----                                     ----
        MASS STORAGE =           0.2827          MASS STORAGE =           0.0000
    CNST H MASS FLUX =           0.0000      CNST H MASS FLUX =           0.0000
      WELL MASS FLUX =         107.8191        WELL MASS FLUX =           0.5000

           TOTAL OUT =         108.1019             TOTAL OUT =           0.5000

            IN - OUT =       4.6384E-11              IN - OUT =           0.0000

 PERCENT DISCREPANCY =           0.00     PERCENT DISCREPANCY =           0.00






          TIME SUMMARY AT END OF TIME STEP         4 IN STRESS PERIOD         8
                    SECONDS     MINUTES      HOURS       DAYS        YEARS
                    -----------------------------------------------------------
   TIME STEP LENGTH 1.72542E+05  2875.7      47.928      1.9970     5.46754E-03
 STRESS PERIOD TIME 5.36000E+05  8933.3      148.89      6.2037     1.69848E-02
         TOTAL TIME 1.86800E+07 3.11333E+05  5188.9      216.20     0.59193    
1
 -------------------------------------------------------------------------------------
 
 SOLVING FOR HEAD 

 Outer-Iteration  Inner-Iteration  Backtracking  Number of        Incoming       Outgoing  Maximum HeadChange      Maximum Head Change
     Number           Count           Flag       Backtracks       Residual       Residual           Value              Location
        1                             0             0          0.415883E-01     0.415883E-01
        1                6                                                                       -0.119200                     1           GWF-node number
        1                6                                                                       -0.111554                     2           CLN-node number
        2                             0             0          0.184763E-13     0.184763E-13
        2                1                                                                        0.706418E-07               190           GWF-node number
        2                1                                                                        0.183081E-06                 3           CLN-node number
     2 CALLS TO SPARSE MATRIX SOLVER PACKAGE  IN FLOW TIME STEP       5 STRESS PERIOD       8

 TOTAL OF       2OUTER ITERATIONS
  MAXIMUM CHANGE FOR EACH ITERATION:
   MAX. CHANGE        NODE  MAX. CHANGE        NODE  MAX. CHANGE        NODE  MAX. CHANGE        NODE  MAX. CHANGE        NODE
 ------------------------------------------------------------------------------------------------------------------------------------
  -0.11920    ,          1  0.70642E-07,        190

  MAXIMUM CHANGE FOR CLN NODE AT EACH ITERATION:
   MAX. CHANGE    CLN-CELL  MAX. CHANGE    CLN-CELL  MAX. CHANGE    CLN-CELL  MAX. CHANGE    CLN-CELL  MAX. CHANGE    CLN-CELL
 ------------------------------------------------------------------------------------------------------------------------------------
  -0.11155    ,          2  0.18308E-06,          3

 HEAD/DRAWDOWN PRINTOUT FLAG = 1     TOTAL BUDGET PRINTOUT FLAG = 1
 CELL-BY-CELL FLOW TERM FLAG = 1
 CONCENTRATION PRINTOUT FLAG = 1

 OUTPUT FLAGS FOR ALL LAYERS ARE THE SAME:
   HEAD    DRAWDOWN  HEAD  DRAWDOWN    CONC    CONC
 PRINTOUT  PRINTOUT  SAVE    SAVE    PRINTOUT  SAVE
 ---------------------------------------------------
     0         0       1       1       0       1
 UBUDSVU SAVING "         STORAGE" ON UNIT  50 AT TIME STEP      5, STRESS PERIOD      8
 UBUDSV SAVING "     CLN STORAGE" ON UNIT 144 AT TIME STEP      5, STRESS PERIOD       8
 UBUDSVU SAVING "   CONSTANT HEAD" ON UNIT  50 AT TIME STEP      5, STRESS PERIOD      8
 UBUDSVU SAVING "   FLOW JA FACE " ON UNIT  50 AT TIME STEP      5, STRESS PERIOD      8
 UBUDSVU SAVING "             CLN" ON UNIT  50 AT TIME STEP      5, STRESS PERIOD      8
 UBUDSVU SAVING "  CLN CONST HEAD" ON UNIT 144 AT TIME STEP      5, STRESS PERIOD      8
 UBUDSVU SAVING "   FLOW CLN FACE" ON UNIT 144 AT TIME STEP      5, STRESS PERIOD      8
 UBUDSVU SAVING "             GWF" ON UNIT 144 AT TIME STEP      5, STRESS PERIOD      8
 UBUDSVU SAVING "           WELLS" ON UNIT  50 AT TIME STEP      5, STRESS PERIOD      8
 UBUDSVU SAVING "           WELLS" ON UNIT 144 AT TIME STEP      5, STRESS PERIOD      8

 HEAD WILL BE SAVED ON UNIT       30 AT END OF TIME STEP        5, STRESS PERIOD        8

 DRAWDOWN WILL BE SAVED ON UNIT   31 AT END OF TIME STEP   5, STRESS PERIOD    8

 CLN HEAD WILL BE SAVED ON UNIT   77 AT END OF TIME STEP   5, STRESS PERIOD    8
1
  VOLUMETRIC BUDGET FOR ENTIRE MODEL AT END OF TIME STEP       5 IN STRESS PERIOD       8
  ---------------------------------------------------------------------------------------

     CUMULATIVE VOLUMES      L**3       RATES FOR THIS TIME STEP      L**3/T
     ------------------                 ------------------------

           IN:                                      IN:
           ---                                      ---
             STORAGE =        1093.0006               STORAGE =           5.0000
         CLN STORAGE =           0.0000           CLN STORAGE =           0.0000
       CONSTANT HEAD =           0.0000         CONSTANT HEAD =           0.0000
      CLN CONST HEAD =           0.0000        CLN CONST HEAD =           0.0000
               WELLS =           0.0000                 WELLS =           0.0000

            TOTAL IN =        1093.0006              TOTAL IN =           5.0000

          OUT:                                     OUT:
          ----                                     ----
             STORAGE =           0.0000               STORAGE =           0.0000
         CLN STORAGE =           0.0000           CLN STORAGE =           0.0000
       CONSTANT HEAD =           0.0000         CONSTANT HEAD =           0.0000
      CLN CONST HEAD =           0.0000        CLN CONST HEAD =           0.0000
               WELLS =        1093.0006                 WELLS =           5.0000

           TOTAL OUT =        1093.0006             TOTAL OUT =           5.0000

            IN - OUT =       1.1091E-05              IN - OUT =       6.2806E-08

 PERCENT DISCREPANCY =           0.00     PERCENT DISCREPANCY =           0.00






          TIME SUMMARY AT END OF TIME STEP         5 IN STRESS PERIOD         8
                    SECONDS     MINUTES      HOURS       DAYS        YEARS
                    -----------------------------------------------------------
   TIME STEP LENGTH 2.07051E+05  3450.8      57.514      2.3964     6.56105E-03
 STRESS PERIOD TIME 7.43051E+05  12384.      206.40      8.6001     2.35459E-02
         TOTAL TIME 1.88870E+07 3.14784E+05  5246.4      218.60     0.59849    
1
 ------------------------------------------------------------------------------------------------------------
 
 SOLVING FOR TRANSPORT 

 ------------------------------------------------------------------------------------------------------------------------
     1 CALLS TO SPARSE MATRIX SOLVER PACKAGE IN TRANSPORT TIME STEP       5 STRESS PERIOD       8 SPECIES  1

 TOTAL OF       1OUTER ITERATIONS
  MAXIMUM CHANGE FOR EACH ITERATION:
   MAX. CHANGE        NODE  MAX. CHANGE        NODE  MAX. CHANGE        NODE  MAX. CHANGE        NODE  MAX. CHANGE        NODE
 ------------------------------------------------------------------------------------------------------------------------------------
   0.14551E-10,        191

  MAXIMUM CHANGE FOR CLN NODE AT EACH ITERATION:
   MAX. CHANGE    CLN-CELL  MAX. CHANGE    CLN-CELL  MAX. CHANGE    CLN-CELL  MAX. CHANGE    CLN-CELL  MAX. CHANGE    CLN-CELL
 ------------------------------------------------------------------------------------------------------------------------------------
  -0.52760E-09,          3
     TRANSPORT SOLUTION COMPLETE FOR COMPONENT SPECIES NUMBER    1
     ------------------------------------------------------------
 UBUDSVU SAVING "    MASS STORAGE" ON UNIT 145 AT TIME STEP      5, STRESS PERIOD      8
 UBUDSVU SAVING "CLN MASS STORAGE" ON UNIT 145 AT TIME STEP      5, STRESS PERIOD      8
 UBUDSVU SAVING "CNST H MASS FLUX" ON UNIT 145 AT TIME STEP      5, STRESS PERIOD      8
 UBUDSVU SAVING "  WELL MASS FLUX" ON UNIT 145 AT TIME STEP      5, STRESS PERIOD      8

 TRANSPORT SOLUTION COMPLETE FOR ALL SPECIES, SORTING OUTPUT FOR CONCENTRATIONS AND MASS BALANCE
 ----------------------------------------------------------------------------------------------------
     TRANSPORT OUTPUT FOR COMPONENT SPECIES NUMBER    1
     ------------------------------------------------------------

 CONC WILL BE SAVED ON UNIT  132 AT END OF TIME STEP        5, STRESS PERIOD        8

 CLN CONC WILL BE SAVED ON UNIT  188 AT END OF TIME STEP   5, STRESS PERIOD    8
1
  VOLUMETRIC BUDGET FOR ENTIRE MODEL AT END OF TIME STEP       5 IN STRESS PERIOD       8
  ---------------------------------------------------------------------------------------

     CUMULATIVE VOLUMES      L**3       RATES FOR THIS TIME STEP      L**3/T
     ------------------                 ------------------------

           IN:                                      IN:
           ---                                      ---
        MASS STORAGE =         109.3001          MASS STORAGE =           0.5000
    CNST H MASS FLUX =           0.0000      CNST H MASS FLUX =           0.0000
      WELL MASS FLUX =           0.0000        WELL MASS FLUX =           0.0000

            TOTAL IN =         109.3001              TOTAL IN =           0.5000

          OUT:                                     OUT:
          ----                                     ----
        MASS STORAGE =           0.2827          MASS STORAGE =       2.1666E-10
    CNST H MASS FLUX =           0.0000      CNST H MASS FLUX =           0.0000
      WELL MASS FLUX =         109.0173        WELL MASS FLUX =           0.5000

           TOTAL OUT =         109.3001             TOTAL OUT =           0.5000

            IN - OUT =       4.9781E-11              IN - OUT =      -2.1666E-10

 PERCENT DISCREPANCY =           0.00     PERCENT DISCREPANCY =          -0.00






          TIME SUMMARY AT END OF TIME STEP         5 IN STRESS PERIOD         8
                    SECONDS     MINUTES      HOURS       DAYS        YEARS
                    -----------------------------------------------------------
   TIME STEP LENGTH 2.07051E+05  3450.8      57.514      2.3964     6.56105E-03
 STRESS PERIOD TIME 7.43051E+05  12384.      206.40      8.6001     2.35459E-02
         TOTAL TIME 1.88870E+07 3.14784E+05  5246.4      218.60     0.59849    
1
 -------------------------------------------------------------------------------------
 
 SOLVING FOR HEAD 

 Outer-Iteration  Inner-Iteration  Backtracking  Number of        Incoming       Outgoing  Maximum HeadChange      Maximum Head Change
     Number           Count           Flag       Backtracks       Residual       Residual           Value              Location
        1                             0             0          0.415119E-01     0.415119E-01
        1                6                                                                       -0.142815                     1           GWF-node number
        1                6                                                                       -0.133672                     1           CLN-node number
        2                             0             0          0.800843E-13     0.800843E-13
        2                1                                                                        0.384595E-07               190           GWF-node number
        2                1                                                                        0.102681E-06                 3           CLN-node number
     2 CALLS TO SPARSE MATRIX SOLVER PACKAGE  IN FLOW TIME STEP       6 STRESS PERIOD       8

 TOTAL OF       2OUTER ITERATIONS
  MAXIMUM CHANGE FOR EACH ITERATION:
   MAX. CHANGE        NODE  MAX. CHANGE        NODE  MAX. CHANGE        NODE  MAX. CHANGE        NODE  MAX. CHANGE        NODE
 ------------------------------------------------------------------------------------------------------------------------------------
  -0.14281    ,          1  0.38460E-07,        190

  MAXIMUM CHANGE FOR CLN NODE AT EACH ITERATION:
   MAX. CHANGE    CLN-CELL  MAX. CHANGE    CLN-CELL  MAX. CHANGE    CLN-CELL  MAX. CHANGE    CLN-CELL  MAX. CHANGE    CLN-CELL
 ------------------------------------------------------------------------------------------------------------------------------------
  -0.13367    ,          1  0.10268E-06,          3

 HEAD/DRAWDOWN PRINTOUT FLAG = 1     TOTAL BUDGET PRINTOUT FLAG = 1
 CELL-BY-CELL FLOW TERM FLAG = 1
 CONCENTRATION PRINTOUT FLAG = 1

 OUTPUT FLAGS FOR ALL LAYERS ARE THE SAME:
   HEAD    DRAWDOWN  HEAD  DRAWDOWN    CONC    CONC
 PRINTOUT  PRINTOUT  SAVE    SAVE    PRINTOUT  SAVE
 ---------------------------------------------------
     0         0       1       1       0       1
 UBUDSVU SAVING "         STORAGE" ON UNIT  50 AT TIME STEP      6, STRESS PERIOD      8
 UBUDSV SAVING "     CLN STORAGE" ON UNIT 144 AT TIME STEP      6, STRESS PERIOD       8
 UBUDSVU SAVING "   CONSTANT HEAD" ON UNIT  50 AT TIME STEP      6, STRESS PERIOD      8
 UBUDSVU SAVING "   FLOW JA FACE " ON UNIT  50 AT TIME STEP      6, STRESS PERIOD      8
 UBUDSVU SAVING "             CLN" ON UNIT  50 AT TIME STEP      6, STRESS PERIOD      8
 UBUDSVU SAVING "  CLN CONST HEAD" ON UNIT 144 AT TIME STEP      6, STRESS PERIOD      8
 UBUDSVU SAVING "   FLOW CLN FACE" ON UNIT 144 AT TIME STEP      6, STRESS PERIOD      8
 UBUDSVU SAVING "             GWF" ON UNIT 144 AT TIME STEP      6, STRESS PERIOD      8
 UBUDSVU SAVING "           WELLS" ON UNIT  50 AT TIME STEP      6, STRESS PERIOD      8
 UBUDSVU SAVING "           WELLS" ON UNIT 144 AT TIME STEP      6, STRESS PERIOD      8

 HEAD WILL BE SAVED ON UNIT       30 AT END OF TIME STEP        6, STRESS PERIOD        8

 DRAWDOWN WILL BE SAVED ON UNIT   31 AT END OF TIME STEP   6, STRESS PERIOD    8

 CLN HEAD WILL BE SAVED ON UNIT   77 AT END OF TIME STEP   6, STRESS PERIOD    8
1
  VOLUMETRIC BUDGET FOR ENTIRE MODEL AT END OF TIME STEP       6 IN STRESS PERIOD       8
  ---------------------------------------------------------------------------------------

     CUMULATIVE VOLUMES      L**3       RATES FOR THIS TIME STEP      L**3/T
     ------------------                 ------------------------

           IN:                                      IN:
           ---                                      ---
             STORAGE =        1107.3791               STORAGE =           5.0000
         CLN STORAGE =           0.0000           CLN STORAGE =           0.0000
       CONSTANT HEAD =           0.0000         CONSTANT HEAD =           0.0000
      CLN CONST HEAD =           0.0000        CLN CONST HEAD =           0.0000
               WELLS =           0.0000                 WELLS =           0.0000

            TOTAL IN =        1107.3791              TOTAL IN =           5.0000

          OUT:                                     OUT:
          ----                                     ----
             STORAGE =           0.0000               STORAGE =           0.0000
         CLN STORAGE =           0.0000           CLN STORAGE =           0.0000
       CONSTANT HEAD =           0.0000         CONSTANT HEAD =           0.0000
      CLN CONST HEAD =           0.0000        CLN CONST HEAD =           0.0000
               WELLS =        1107.3791                 WELLS =           5.0000

           TOTAL OUT =        1107.3791             TOTAL OUT =           5.0000

            IN - OUT =       1.1196E-05              IN - OUT =       3.6253E-08

 PERCENT DISCREPANCY =           0.00     PERCENT DISCREPANCY =           0.00






          TIME SUMMARY AT END OF TIME STEP         6 IN STRESS PERIOD         8
                    SECONDS     MINUTES      HOURS       DAYS        YEARS
                    -----------------------------------------------------------
   TIME STEP LENGTH 2.48461E+05  4141.0      69.017      2.8757     7.87326E-03
 STRESS PERIOD TIME 9.91512E+05  16525.      275.42      11.476     3.14191E-02
         TOTAL TIME 1.91355E+07 3.18925E+05  5315.4      221.48     0.60637    
1
 ------------------------------------------------------------------------------------------------------------
 
 SOLVING FOR TRANSPORT 

 ------------------------------------------------------------------------------------------------------------------------
     1 CALLS TO SPARSE MATRIX SOLVER PACKAGE IN TRANSPORT TIME STEP       6 STRESS PERIOD       8 SPECIES  1

 TOTAL OF       1OUTER ITERATIONS
  MAXIMUM CHANGE FOR EACH ITERATION:
   MAX. CHANGE        NODE  MAX. CHANGE        NODE  MAX. CHANGE        NODE  MAX. CHANGE        NODE  MAX. CHANGE        NODE
 ------------------------------------------------------------------------------------------------------------------------------------
   0.83253E-11,        191

  MAXIMUM CHANGE FOR CLN NODE AT EACH ITERATION:
   MAX. CHANGE    CLN-CELL  MAX. CHANGE    CLN-CELL  MAX. CHANGE    CLN-CELL  MAX. CHANGE    CLN-CELL  MAX. CHANGE    CLN-CELL
 ------------------------------------------------------------------------------------------------------------------------------------
  -0.71717E-09,          2
     TRANSPORT SOLUTION COMPLETE FOR COMPONENT SPECIES NUMBER    1
     ------------------------------------------------------------
 UBUDSVU SAVING "    MASS STORAGE" ON UNIT 145 AT TIME STEP      6, STRESS PERIOD      8
 UBUDSVU SAVING "CLN MASS STORAGE" ON UNIT 145 AT TIME STEP      6, STRESS PERIOD      8
 UBUDSVU SAVING "CNST H MASS FLUX" ON UNIT 145 AT TIME STEP      6, STRESS PERIOD      8
 UBUDSVU SAVING "  WELL MASS FLUX" ON UNIT 145 AT TIME STEP      6, STRESS PERIOD      8

 TRANSPORT SOLUTION COMPLETE FOR ALL SPECIES, SORTING OUTPUT FOR CONCENTRATIONS AND MASS BALANCE
 ----------------------------------------------------------------------------------------------------
     TRANSPORT OUTPUT FOR COMPONENT SPECIES NUMBER    1
     ------------------------------------------------------------

 CONC WILL BE SAVED ON UNIT  132 AT END OF TIME STEP        6, STRESS PERIOD        8

 CLN CONC WILL BE SAVED ON UNIT  188 AT END OF TIME STEP   6, STRESS PERIOD    8
1
  VOLUMETRIC BUDGET FOR ENTIRE MODEL AT END OF TIME STEP       6 IN STRESS PERIOD       8
  ---------------------------------------------------------------------------------------

     CUMULATIVE VOLUMES      L**3       RATES FOR THIS TIME STEP      L**3/T
     ------------------                 ------------------------

           IN:                                      IN:
           ---                                      ---
        MASS STORAGE =         110.7379          MASS STORAGE =           0.5000
    CNST H MASS FLUX =           0.0000      CNST H MASS FLUX =           0.0000
      WELL MASS FLUX =           0.0000        WELL MASS FLUX =           0.0000

            TOTAL IN =         110.7379              TOTAL IN =           0.5000

          OUT:                                     OUT:
          ----                                     ----
        MASS STORAGE =           0.2827          MASS STORAGE =       1.0939E-10
    CNST H MASS FLUX =           0.0000      CNST H MASS FLUX =           0.0000
      WELL MASS FLUX =         110.4552        WELL MASS FLUX =           0.5000

           TOTAL OUT =         110.7379             TOTAL OUT =           0.5000

            IN - OUT =       5.2566E-11              IN - OUT =      -1.0939E-10

 PERCENT DISCREPANCY =           0.00     PERCENT DISCREPANCY =          -0.00






          TIME SUMMARY AT END OF TIME STEP         6 IN STRESS PERIOD         8
                    SECONDS     MINUTES      HOURS       DAYS        YEARS
                    -----------------------------------------------------------
   TIME STEP LENGTH 2.48461E+05  4141.0      69.017      2.8757     7.87326E-03
 STRESS PERIOD TIME 9.91512E+05  16525.      275.42      11.476     3.14191E-02
         TOTAL TIME 1.91355E+07 3.18925E+05  5315.4      221.48     0.60637    
1
 -------------------------------------------------------------------------------------
 
 SOLVING FOR HEAD 

 Outer-Iteration  Inner-Iteration  Backtracking  Number of        Incoming       Outgoing  Maximum HeadChange      Maximum Head Change
     Number           Count           Flag       Backtracks       Residual       Residual           Value              Location
        1                             0             0          0.414210E-01     0.414210E-01
        1                6                                                                       -0.171056                     1           GWF-node number
        1                6                                                                       -0.160131                     1           CLN-node number
        2                             0             0          0.861352E-14     0.861352E-14
        2                1                                                                        0.972606E-07               190           GWF-node number
        2                1                                                                        0.257308E-06                 3           CLN-node number
     2 CALLS TO SPARSE MATRIX SOLVER PACKAGE  IN FLOW TIME STEP       7 STRESS PERIOD       8

 TOTAL OF       2OUTER ITERATIONS
  MAXIMUM CHANGE FOR EACH ITERATION:
   MAX. CHANGE        NODE  MAX. CHANGE        NODE  MAX. CHANGE        NODE  MAX. CHANGE        NODE  MAX. CHANGE        NODE
 ------------------------------------------------------------------------------------------------------------------------------------
  -0.17106    ,          1  0.97261E-07,        190

  MAXIMUM CHANGE FOR CLN NODE AT EACH ITERATION:
   MAX. CHANGE    CLN-CELL  MAX. CHANGE    CLN-CELL  MAX. CHANGE    CLN-CELL  MAX. CHANGE    CLN-CELL  MAX. CHANGE    CLN-CELL
 ------------------------------------------------------------------------------------------------------------------------------------
  -0.16013    ,          1  0.25731E-06,          3

 HEAD/DRAWDOWN PRINTOUT FLAG = 1     TOTAL BUDGET PRINTOUT FLAG = 1
 CELL-BY-CELL FLOW TERM FLAG = 1
 CONCENTRATION PRINTOUT FLAG = 1

 OUTPUT FLAGS FOR ALL LAYERS ARE THE SAME:
   HEAD    DRAWDOWN  HEAD  DRAWDOWN    CONC    CONC
 PRINTOUT  PRINTOUT  SAVE    SAVE    PRINTOUT  SAVE
 ---------------------------------------------------
     0         0       1       1       0       1
 UBUDSVU SAVING "         STORAGE" ON UNIT  50 AT TIME STEP      7, STRESS PERIOD      8
 UBUDSV SAVING "     CLN STORAGE" ON UNIT 144 AT TIME STEP      7, STRESS PERIOD       8
 UBUDSVU SAVING "   CONSTANT HEAD" ON UNIT  50 AT TIME STEP      7, STRESS PERIOD      8
 UBUDSVU SAVING "   FLOW JA FACE " ON UNIT  50 AT TIME STEP      7, STRESS PERIOD      8
 UBUDSVU SAVING "             CLN" ON UNIT  50 AT TIME STEP      7, STRESS PERIOD      8
 UBUDSVU SAVING "  CLN CONST HEAD" ON UNIT 144 AT TIME STEP      7, STRESS PERIOD      8
 UBUDSVU SAVING "   FLOW CLN FACE" ON UNIT 144 AT TIME STEP      7, STRESS PERIOD      8
 UBUDSVU SAVING "             GWF" ON UNIT 144 AT TIME STEP      7, STRESS PERIOD      8
 UBUDSVU SAVING "           WELLS" ON UNIT  50 AT TIME STEP      7, STRESS PERIOD      8
 UBUDSVU SAVING "           WELLS" ON UNIT 144 AT TIME STEP      7, STRESS PERIOD      8

 HEAD WILL BE SAVED ON UNIT       30 AT END OF TIME STEP        7, STRESS PERIOD        8

 DRAWDOWN WILL BE SAVED ON UNIT   31 AT END OF TIME STEP   7, STRESS PERIOD    8

 CLN HEAD WILL BE SAVED ON UNIT   77 AT END OF TIME STEP   7, STRESS PERIOD    8
1
  VOLUMETRIC BUDGET FOR ENTIRE MODEL AT END OF TIME STEP       7 IN STRESS PERIOD       8
  ---------------------------------------------------------------------------------------

     CUMULATIVE VOLUMES      L**3       RATES FOR THIS TIME STEP      L**3/T
     ------------------                 ------------------------

           IN:                                      IN:
           ---                                      ---
             STORAGE =        1124.6334               STORAGE =           5.0000
         CLN STORAGE =           0.0000           CLN STORAGE =           0.0000
       CONSTANT HEAD =           0.0000         CONSTANT HEAD =           0.0000
      CLN CONST HEAD =           0.0000        CLN CONST HEAD =           0.0000
               WELLS =           0.0000                 WELLS =           0.0000

            TOTAL IN =        1124.6334              TOTAL IN =           5.0000

          OUT:                                     OUT:
          ----                                     ----
             STORAGE =           0.0000               STORAGE =           0.0000
         CLN STORAGE =           0.0000           CLN STORAGE =           0.0000
       CONSTANT HEAD =           0.0000         CONSTANT HEAD =           0.0000
      CLN CONST HEAD =           0.0000        CLN CONST HEAD =           0.0000
               WELLS =        1124.6334                 WELLS =           5.0000

           TOTAL OUT =        1124.6334             TOTAL OUT =           5.0000

            IN - OUT =       1.1565E-05              IN - OUT =       1.0698E-07

 PERCENT DISCREPANCY =           0.00     PERCENT DISCREPANCY =           0.00






          TIME SUMMARY AT END OF TIME STEP         7 IN STRESS PERIOD         8
                    SECONDS     MINUTES      HOURS       DAYS        YEARS
                    -----------------------------------------------------------
   TIME STEP LENGTH 2.98153E+05  4969.2      82.820      3.4509     9.44791E-03
 STRESS PERIOD TIME 1.28967E+06  21494.      358.24      14.927     4.08670E-02
         TOTAL TIME 1.94337E+07 3.23894E+05  5398.2      224.93     0.61582    
1
 ------------------------------------------------------------------------------------------------------------
 
 SOLVING FOR TRANSPORT 

 ------------------------------------------------------------------------------------------------------------------------
     1 CALLS TO SPARSE MATRIX SOLVER PACKAGE IN TRANSPORT TIME STEP       7 STRESS PERIOD       8 SPECIES  1

 TOTAL OF       1OUTER ITERATIONS
  MAXIMUM CHANGE FOR EACH ITERATION:
   MAX. CHANGE        NODE  MAX. CHANGE        NODE  MAX. CHANGE        NODE  MAX. CHANGE        NODE  MAX. CHANGE        NODE
 ------------------------------------------------------------------------------------------------------------------------------------
   0.31762E-10,        191

  MAXIMUM CHANGE FOR CLN NODE AT EACH ITERATION:
   MAX. CHANGE    CLN-CELL  MAX. CHANGE    CLN-CELL  MAX. CHANGE    CLN-CELL  MAX. CHANGE    CLN-CELL  MAX. CHANGE    CLN-CELL
 ------------------------------------------------------------------------------------------------------------------------------------
   0.47598E-09,          3
     TRANSPORT SOLUTION COMPLETE FOR COMPONENT SPECIES NUMBER    1
     ------------------------------------------------------------
 UBUDSVU SAVING "    MASS STORAGE" ON UNIT 145 AT TIME STEP      7, STRESS PERIOD      8
 UBUDSVU SAVING "CLN MASS STORAGE" ON UNIT 145 AT TIME STEP      7, STRESS PERIOD      8
 UBUDSVU SAVING "CNST H MASS FLUX" ON UNIT 145 AT TIME STEP      7, STRESS PERIOD      8
 UBUDSVU SAVING "  WELL MASS FLUX" ON UNIT 145 AT TIME STEP      7, STRESS PERIOD      8

 TRANSPORT SOLUTION COMPLETE FOR ALL SPECIES, SORTING OUTPUT FOR CONCENTRATIONS AND MASS BALANCE
 ----------------------------------------------------------------------------------------------------
     TRANSPORT OUTPUT FOR COMPONENT SPECIES NUMBER    1
     ------------------------------------------------------------

 CONC WILL BE SAVED ON UNIT  132 AT END OF TIME STEP        7, STRESS PERIOD        8

 CLN CONC WILL BE SAVED ON UNIT  188 AT END OF TIME STEP   7, STRESS PERIOD    8
1
  VOLUMETRIC BUDGET FOR ENTIRE MODEL AT END OF TIME STEP       7 IN STRESS PERIOD       8
  ---------------------------------------------------------------------------------------

     CUMULATIVE VOLUMES      L**3       RATES FOR THIS TIME STEP      L**3/T
     ------------------                 ------------------------

           IN:                                      IN:
           ---                                      ---
        MASS STORAGE =         112.4633          MASS STORAGE =           0.5000
    CNST H MASS FLUX =           0.0000      CNST H MASS FLUX =           0.0000
      WELL MASS FLUX =           0.0000        WELL MASS FLUX =           0.0000

            TOTAL IN =         112.4633              TOTAL IN =           0.5000

          OUT:                                     OUT:
          ----                                     ----
        MASS STORAGE =           0.2827          MASS STORAGE =       1.9383E-10
    CNST H MASS FLUX =           0.0000      CNST H MASS FLUX =           0.0000
      WELL MASS FLUX =         112.1806        WELL MASS FLUX =           0.5000

           TOTAL OUT =         112.4633             TOTAL OUT =           0.5000

            IN - OUT =       7.8742E-11              IN - OUT =      -1.9383E-10

 PERCENT DISCREPANCY =           0.00     PERCENT DISCREPANCY =          -0.00






          TIME SUMMARY AT END OF TIME STEP         7 IN STRESS PERIOD         8
                    SECONDS     MINUTES      HOURS       DAYS        YEARS
                    -----------------------------------------------------------
   TIME STEP LENGTH 2.98153E+05  4969.2      82.820      3.4509     9.44791E-03
 STRESS PERIOD TIME 1.28967E+06  21494.      358.24      14.927     4.08670E-02
         TOTAL TIME 1.94337E+07 3.23894E+05  5398.2      224.93     0.61582    
1
 -------------------------------------------------------------------------------------
 
 SOLVING FOR HEAD 

 Outer-Iteration  Inner-Iteration  Backtracking  Number of        Incoming       Outgoing  Maximum HeadChange      Maximum Head Change
     Number           Count           Flag       Backtracks       Residual       Residual           Value              Location
        1                             0             0          0.413130E-01     0.413130E-01
        1                6                                                                       -0.204809                     1           GWF-node number
        1                6                                                                       -0.191766                     1           CLN-node number
        2                             0             0          0.611334E-13     0.611334E-13
        2                1                                                                        0.171825E-06               401           GWF-node number
        2                1                                                                       -0.157227E-06                 2           CLN-node number
     2 CALLS TO SPARSE MATRIX SOLVER PACKAGE  IN FLOW TIME STEP       8 STRESS PERIOD       8

 TOTAL OF       2OUTER ITERATIONS
  MAXIMUM CHANGE FOR EACH ITERATION:
   MAX. CHANGE        NODE  MAX. CHANGE        NODE  MAX. CHANGE        NODE  MAX. CHANGE        NODE  MAX. CHANGE        NODE
 ------------------------------------------------------------------------------------------------------------------------------------
  -0.20481    ,          1  0.17183E-06,        401

  MAXIMUM CHANGE FOR CLN NODE AT EACH ITERATION:
   MAX. CHANGE    CLN-CELL  MAX. CHANGE    CLN-CELL  MAX. CHANGE    CLN-CELL  MAX. CHANGE    CLN-CELL  MAX. CHANGE    CLN-CELL
 ------------------------------------------------------------------------------------------------------------------------------------
  -0.19177    ,          1 -0.15723E-06,          2

 HEAD/DRAWDOWN PRINTOUT FLAG = 1     TOTAL BUDGET PRINTOUT FLAG = 1
 CELL-BY-CELL FLOW TERM FLAG = 1
 CONCENTRATION PRINTOUT FLAG = 1

 OUTPUT FLAGS FOR ALL LAYERS ARE THE SAME:
   HEAD    DRAWDOWN  HEAD  DRAWDOWN    CONC    CONC
 PRINTOUT  PRINTOUT  SAVE    SAVE    PRINTOUT  SAVE
 ---------------------------------------------------
     0         0       1       1       0       1
 UBUDSVU SAVING "         STORAGE" ON UNIT  50 AT TIME STEP      8, STRESS PERIOD      8
 UBUDSV SAVING "     CLN STORAGE" ON UNIT 144 AT TIME STEP      8, STRESS PERIOD       8
 UBUDSVU SAVING "   CONSTANT HEAD" ON UNIT  50 AT TIME STEP      8, STRESS PERIOD      8
 UBUDSVU SAVING "   FLOW JA FACE " ON UNIT  50 AT TIME STEP      8, STRESS PERIOD      8
 UBUDSVU SAVING "             CLN" ON UNIT  50 AT TIME STEP      8, STRESS PERIOD      8
 UBUDSVU SAVING "  CLN CONST HEAD" ON UNIT 144 AT TIME STEP      8, STRESS PERIOD      8
 UBUDSVU SAVING "   FLOW CLN FACE" ON UNIT 144 AT TIME STEP      8, STRESS PERIOD      8
 UBUDSVU SAVING "             GWF" ON UNIT 144 AT TIME STEP      8, STRESS PERIOD      8
 UBUDSVU SAVING "           WELLS" ON UNIT  50 AT TIME STEP      8, STRESS PERIOD      8
 UBUDSVU SAVING "           WELLS" ON UNIT 144 AT TIME STEP      8, STRESS PERIOD      8

 HEAD WILL BE SAVED ON UNIT       30 AT END OF TIME STEP        8, STRESS PERIOD        8

 DRAWDOWN WILL BE SAVED ON UNIT   31 AT END OF TIME STEP   8, STRESS PERIOD    8

 CLN HEAD WILL BE SAVED ON UNIT   77 AT END OF TIME STEP   8, STRESS PERIOD    8
1
  VOLUMETRIC BUDGET FOR ENTIRE MODEL AT END OF TIME STEP       8 IN STRESS PERIOD       8
  ---------------------------------------------------------------------------------------

     CUMULATIVE VOLUMES      L**3       RATES FOR THIS TIME STEP      L**3/T
     ------------------                 ------------------------

           IN:                                      IN:
           ---                                      ---
             STORAGE =        1145.3385               STORAGE =           5.0000
         CLN STORAGE =           0.0000           CLN STORAGE =           0.0000
       CONSTANT HEAD =           0.0000         CONSTANT HEAD =           0.0000
      CLN CONST HEAD =           0.0000        CLN CONST HEAD =           0.0000
               WELLS =           0.0000                 WELLS =           0.0000

            TOTAL IN =        1145.3385              TOTAL IN =           5.0000

          OUT:                                     OUT:
          ----                                     ----
             STORAGE =           0.0000               STORAGE =           0.0000
         CLN STORAGE =           0.0000           CLN STORAGE =           0.0000
       CONSTANT HEAD =           0.0000         CONSTANT HEAD =           0.0000
      CLN CONST HEAD =           0.0000        CLN CONST HEAD =           0.0000
               WELLS =        1145.3385                 WELLS =           5.0000

           TOTAL OUT =        1145.3385             TOTAL OUT =           5.0000

            IN - OUT =       1.1768E-05              IN - OUT =       4.9179E-08

 PERCENT DISCREPANCY =           0.00     PERCENT DISCREPANCY =           0.00






          TIME SUMMARY AT END OF TIME STEP         8 IN STRESS PERIOD         8
                    SECONDS     MINUTES      HOURS       DAYS        YEARS
                    -----------------------------------------------------------
   TIME STEP LENGTH 3.57784E+05  5963.1      99.384      4.1410     1.13375E-02
 STRESS PERIOD TIME 1.64745E+06  27457.      457.62      19.068     5.22045E-02
         TOTAL TIME 1.97914E+07 3.29858E+05  5497.6      229.07     0.62715    
1
 ------------------------------------------------------------------------------------------------------------
 
 SOLVING FOR TRANSPORT 

 ------------------------------------------------------------------------------------------------------------------------
     1 CALLS TO SPARSE MATRIX SOLVER PACKAGE IN TRANSPORT TIME STEP       8 STRESS PERIOD       8 SPECIES  1

 TOTAL OF       1OUTER ITERATIONS
  MAXIMUM CHANGE FOR EACH ITERATION:
   MAX. CHANGE        NODE  MAX. CHANGE        NODE  MAX. CHANGE        NODE  MAX. CHANGE        NODE  MAX. CHANGE        NODE
 ------------------------------------------------------------------------------------------------------------------------------------
  -0.33210E-10,        191

  MAXIMUM CHANGE FOR CLN NODE AT EACH ITERATION:
   MAX. CHANGE    CLN-CELL  MAX. CHANGE    CLN-CELL  MAX. CHANGE    CLN-CELL  MAX. CHANGE    CLN-CELL  MAX. CHANGE    CLN-CELL
 ------------------------------------------------------------------------------------------------------------------------------------
   0.13635E-08,          2
     TRANSPORT SOLUTION COMPLETE FOR COMPONENT SPECIES NUMBER    1
     ------------------------------------------------------------
 UBUDSVU SAVING "    MASS STORAGE" ON UNIT 145 AT TIME STEP      8, STRESS PERIOD      8
 UBUDSVU SAVING "CLN MASS STORAGE" ON UNIT 145 AT TIME STEP      8, STRESS PERIOD      8
 UBUDSVU SAVING "CNST H MASS FLUX" ON UNIT 145 AT TIME STEP      8, STRESS PERIOD      8
 UBUDSVU SAVING "  WELL MASS FLUX" ON UNIT 145 AT TIME STEP      8, STRESS PERIOD      8

 TRANSPORT SOLUTION COMPLETE FOR ALL SPECIES, SORTING OUTPUT FOR CONCENTRATIONS AND MASS BALANCE
 ----------------------------------------------------------------------------------------------------
     TRANSPORT OUTPUT FOR COMPONENT SPECIES NUMBER    1
     ------------------------------------------------------------

 CONC WILL BE SAVED ON UNIT  132 AT END OF TIME STEP        8, STRESS PERIOD        8

 CLN CONC WILL BE SAVED ON UNIT  188 AT END OF TIME STEP   8, STRESS PERIOD    8
1
  VOLUMETRIC BUDGET FOR ENTIRE MODEL AT END OF TIME STEP       8 IN STRESS PERIOD       8
  ---------------------------------------------------------------------------------------

     CUMULATIVE VOLUMES      L**3       RATES FOR THIS TIME STEP      L**3/T
     ------------------                 ------------------------

           IN:                                      IN:
           ---                                      ---
        MASS STORAGE =         114.5339          MASS STORAGE =           0.5000
    CNST H MASS FLUX =           0.0000      CNST H MASS FLUX =           0.0000
      WELL MASS FLUX =           0.0000        WELL MASS FLUX =           0.0000

            TOTAL IN =         114.5339              TOTAL IN =           0.5000

          OUT:                                     OUT:
          ----                                     ----
        MASS STORAGE =           0.2827          MASS STORAGE =       3.7101E-10
    CNST H MASS FLUX =           0.0000      CNST H MASS FLUX =           0.0000
      WELL MASS FLUX =         114.2511        WELL MASS FLUX =           0.5000

           TOTAL OUT =         114.5339             TOTAL OUT =           0.5000

            IN - OUT =       5.5906E-11              IN - OUT =      -3.7101E-10

 PERCENT DISCREPANCY =           0.00     PERCENT DISCREPANCY =          -0.00






          TIME SUMMARY AT END OF TIME STEP         8 IN STRESS PERIOD         8
                    SECONDS     MINUTES      HOURS       DAYS        YEARS
                    -----------------------------------------------------------
   TIME STEP LENGTH 3.57784E+05  5963.1      99.384      4.1410     1.13375E-02
 STRESS PERIOD TIME 1.64745E+06  27457.      457.62      19.068     5.22045E-02
         TOTAL TIME 1.97914E+07 3.29858E+05  5497.6      229.07     0.62715    
1
 -------------------------------------------------------------------------------------
 
 SOLVING FOR HEAD 

 Outer-Iteration  Inner-Iteration  Backtracking  Number of        Incoming       Outgoing  Maximum HeadChange      Maximum Head Change
     Number           Count           Flag       Backtracks       Residual       Residual           Value              Location
        1                             0             0          0.411849E-01     0.411849E-01
        1                6                                                                       -0.245121                     1           GWF-node number
        1                6                                                                       -0.229562                     3           CLN-node number
        2                             0             0          0.649285E-13     0.649285E-13
        2                1                                                                        0.477547E-06               401           GWF-node number
        2                1                                                                        0.237213E-06                 3           CLN-node number
     2 CALLS TO SPARSE MATRIX SOLVER PACKAGE  IN FLOW TIME STEP       9 STRESS PERIOD       8

 TOTAL OF       2OUTER ITERATIONS
  MAXIMUM CHANGE FOR EACH ITERATION:
   MAX. CHANGE        NODE  MAX. CHANGE        NODE  MAX. CHANGE        NODE  MAX. CHANGE        NODE  MAX. CHANGE        NODE
 ------------------------------------------------------------------------------------------------------------------------------------
  -0.24512    ,          1  0.47755E-06,        401

  MAXIMUM CHANGE FOR CLN NODE AT EACH ITERATION:
   MAX. CHANGE    CLN-CELL  MAX. CHANGE    CLN-CELL  MAX. CHANGE    CLN-CELL  MAX. CHANGE    CLN-CELL  MAX. CHANGE    CLN-CELL
 ------------------------------------------------------------------------------------------------------------------------------------
  -0.22956    ,          3  0.23721E-06,          3

 HEAD/DRAWDOWN PRINTOUT FLAG = 1     TOTAL BUDGET PRINTOUT FLAG = 1
 CELL-BY-CELL FLOW TERM FLAG = 1
 CONCENTRATION PRINTOUT FLAG = 1

 OUTPUT FLAGS FOR ALL LAYERS ARE THE SAME:
   HEAD    DRAWDOWN  HEAD  DRAWDOWN    CONC    CONC
 PRINTOUT  PRINTOUT  SAVE    SAVE    PRINTOUT  SAVE
 ---------------------------------------------------
     0         0       1       1       0       1
 UBUDSVU SAVING "         STORAGE" ON UNIT  50 AT TIME STEP      9, STRESS PERIOD      8
 UBUDSV SAVING "     CLN STORAGE" ON UNIT 144 AT TIME STEP      9, STRESS PERIOD       8
 UBUDSVU SAVING "   CONSTANT HEAD" ON UNIT  50 AT TIME STEP      9, STRESS PERIOD      8
 UBUDSVU SAVING "   FLOW JA FACE " ON UNIT  50 AT TIME STEP      9, STRESS PERIOD      8
 UBUDSVU SAVING "             CLN" ON UNIT  50 AT TIME STEP      9, STRESS PERIOD      8
 UBUDSVU SAVING "  CLN CONST HEAD" ON UNIT 144 AT TIME STEP      9, STRESS PERIOD      8
 UBUDSVU SAVING "   FLOW CLN FACE" ON UNIT 144 AT TIME STEP      9, STRESS PERIOD      8
 UBUDSVU SAVING "             GWF" ON UNIT 144 AT TIME STEP      9, STRESS PERIOD      8
 UBUDSVU SAVING "           WELLS" ON UNIT  50 AT TIME STEP      9, STRESS PERIOD      8
 UBUDSVU SAVING "           WELLS" ON UNIT 144 AT TIME STEP      9, STRESS PERIOD      8

 HEAD WILL BE SAVED ON UNIT       30 AT END OF TIME STEP        9, STRESS PERIOD        8

 DRAWDOWN WILL BE SAVED ON UNIT   31 AT END OF TIME STEP   9, STRESS PERIOD    8

 CLN HEAD WILL BE SAVED ON UNIT   77 AT END OF TIME STEP   9, STRESS PERIOD    8
1
  VOLUMETRIC BUDGET FOR ENTIRE MODEL AT END OF TIME STEP       9 IN STRESS PERIOD       8
  ---------------------------------------------------------------------------------------

     CUMULATIVE VOLUMES      L**3       RATES FOR THIS TIME STEP      L**3/T
     ------------------                 ------------------------

           IN:                                      IN:
           ---                                      ---
             STORAGE =        1170.1846               STORAGE =           5.0000
         CLN STORAGE =           0.0000           CLN STORAGE =           0.0000
       CONSTANT HEAD =           0.0000         CONSTANT HEAD =           0.0000
      CLN CONST HEAD =           0.0000        CLN CONST HEAD =           0.0000
               WELLS =           0.0000                 WELLS =           0.0000

            TOTAL IN =        1170.1846              TOTAL IN =           5.0000

          OUT:                                     OUT:
          ----                                     ----
             STORAGE =           0.0000               STORAGE =           0.0000
         CLN STORAGE =           0.0000           CLN STORAGE =           0.0000
       CONSTANT HEAD =           0.0000         CONSTANT HEAD =           0.0000
      CLN CONST HEAD =           0.0000        CLN CONST HEAD =           0.0000
               WELLS =        1170.1846                 WELLS =           5.0000

           TOTAL OUT =        1170.1846             TOTAL OUT =           5.0000

            IN - OUT =       1.1932E-05              IN - OUT =       3.2980E-08

 PERCENT DISCREPANCY =           0.00     PERCENT DISCREPANCY =           0.00






          TIME SUMMARY AT END OF TIME STEP         9 IN STRESS PERIOD         8
                    SECONDS     MINUTES      HOURS       DAYS        YEARS
                    -----------------------------------------------------------
   TIME STEP LENGTH 4.29341E+05  7155.7      119.26      4.9692     1.36050E-02
 STRESS PERIOD TIME 2.07679E+06  34613.      576.89      24.037     6.58095E-02
         TOTAL TIME 2.02208E+07 3.37013E+05  5616.9      234.04     0.64076    
1
 ------------------------------------------------------------------------------------------------------------
 
 SOLVING FOR TRANSPORT 

 ------------------------------------------------------------------------------------------------------------------------
     1 CALLS TO SPARSE MATRIX SOLVER PACKAGE IN TRANSPORT TIME STEP       9 STRESS PERIOD       8 SPECIES  1

 TOTAL OF       1OUTER ITERATIONS
  MAXIMUM CHANGE FOR EACH ITERATION:
   MAX. CHANGE        NODE  MAX. CHANGE        NODE  MAX. CHANGE        NODE  MAX. CHANGE        NODE  MAX. CHANGE        NODE
 ------------------------------------------------------------------------------------------------------------------------------------
   0.40380E-10,        191

  MAXIMUM CHANGE FOR CLN NODE AT EACH ITERATION:
   MAX. CHANGE    CLN-CELL  MAX. CHANGE    CLN-CELL  MAX. CHANGE    CLN-CELL  MAX. CHANGE    CLN-CELL  MAX. CHANGE    CLN-CELL
 ------------------------------------------------------------------------------------------------------------------------------------
  -0.13852E-08,          2
     TRANSPORT SOLUTION COMPLETE FOR COMPONENT SPECIES NUMBER    1
     ------------------------------------------------------------
 UBUDSVU SAVING "    MASS STORAGE" ON UNIT 145 AT TIME STEP      9, STRESS PERIOD      8
 UBUDSVU SAVING "CLN MASS STORAGE" ON UNIT 145 AT TIME STEP      9, STRESS PERIOD      8
 UBUDSVU SAVING "CNST H MASS FLUX" ON UNIT 145 AT TIME STEP      9, STRESS PERIOD      8
 UBUDSVU SAVING "  WELL MASS FLUX" ON UNIT 145 AT TIME STEP      9, STRESS PERIOD      8

 TRANSPORT SOLUTION COMPLETE FOR ALL SPECIES, SORTING OUTPUT FOR CONCENTRATIONS AND MASS BALANCE
 ----------------------------------------------------------------------------------------------------
     TRANSPORT OUTPUT FOR COMPONENT SPECIES NUMBER    1
     ------------------------------------------------------------

 CONC WILL BE SAVED ON UNIT  132 AT END OF TIME STEP        9, STRESS PERIOD        8

 CLN CONC WILL BE SAVED ON UNIT  188 AT END OF TIME STEP   9, STRESS PERIOD    8
1
  VOLUMETRIC BUDGET FOR ENTIRE MODEL AT END OF TIME STEP       9 IN STRESS PERIOD       8
  ---------------------------------------------------------------------------------------

     CUMULATIVE VOLUMES      L**3       RATES FOR THIS TIME STEP      L**3/T
     ------------------                 ------------------------

           IN:                                      IN:
           ---                                      ---
        MASS STORAGE =         117.0185          MASS STORAGE =           0.5000
    CNST H MASS FLUX =           0.0000      CNST H MASS FLUX =           0.0000
      WELL MASS FLUX =           0.0000        WELL MASS FLUX =           0.0000

            TOTAL IN =         117.0185              TOTAL IN =           0.5000

          OUT:                                     OUT:
          ----                                     ----
        MASS STORAGE =           0.2827          MASS STORAGE =           0.0000
    CNST H MASS FLUX =           0.0000      CNST H MASS FLUX =           0.0000
      WELL MASS FLUX =         116.7357        WELL MASS FLUX =           0.5000

           TOTAL OUT =         117.0185             TOTAL OUT =           0.5000

            IN - OUT =       8.4270E-11              IN - OUT =           0.0000

 PERCENT DISCREPANCY =           0.00     PERCENT DISCREPANCY =           0.00






          TIME SUMMARY AT END OF TIME STEP         9 IN STRESS PERIOD         8
                    SECONDS     MINUTES      HOURS       DAYS        YEARS
                    -----------------------------------------------------------
   TIME STEP LENGTH 4.29341E+05  7155.7      119.26      4.9692     1.36050E-02
 STRESS PERIOD TIME 2.07679E+06  34613.      576.89      24.037     6.58095E-02
         TOTAL TIME 2.02208E+07 3.37013E+05  5616.9      234.04     0.64076    
1
 -------------------------------------------------------------------------------------
 
 SOLVING FOR HEAD 

 Outer-Iteration  Inner-Iteration  Backtracking  Number of        Incoming       Outgoing  Maximum HeadChange      Maximum Head Change
     Number           Count           Flag       Backtracks       Residual       Residual           Value              Location
        1                             0             0          0.410332E-01     0.410332E-01
        1                7                                                                       -0.293221                     1           GWF-node number
        1                7                                                                       -0.274683                     1           CLN-node number
        2                             0             0          0.181325E-13     0.181325E-13
        2                1                                                                       -0.635626E-07               417           GWF-node number
        2                1                                                                       -0.143058E-06                 2           CLN-node number
     2 CALLS TO SPARSE MATRIX SOLVER PACKAGE  IN FLOW TIME STEP      10 STRESS PERIOD       8

 TOTAL OF       2OUTER ITERATIONS
  MAXIMUM CHANGE FOR EACH ITERATION:
   MAX. CHANGE        NODE  MAX. CHANGE        NODE  MAX. CHANGE        NODE  MAX. CHANGE        NODE  MAX. CHANGE        NODE
 ------------------------------------------------------------------------------------------------------------------------------------
  -0.29322    ,          1 -0.63563E-07,        417

  MAXIMUM CHANGE FOR CLN NODE AT EACH ITERATION:
   MAX. CHANGE    CLN-CELL  MAX. CHANGE    CLN-CELL  MAX. CHANGE    CLN-CELL  MAX. CHANGE    CLN-CELL  MAX. CHANGE    CLN-CELL
 ------------------------------------------------------------------------------------------------------------------------------------
  -0.27468    ,          1 -0.14306E-06,          2

 HEAD/DRAWDOWN PRINTOUT FLAG = 1     TOTAL BUDGET PRINTOUT FLAG = 1
 CELL-BY-CELL FLOW TERM FLAG = 1
 CONCENTRATION PRINTOUT FLAG = 1

 OUTPUT FLAGS FOR ALL LAYERS ARE THE SAME:
   HEAD    DRAWDOWN  HEAD  DRAWDOWN    CONC    CONC
 PRINTOUT  PRINTOUT  SAVE    SAVE    PRINTOUT  SAVE
 ---------------------------------------------------
     0         0       1       1       0       1
 UBUDSVU SAVING "         STORAGE" ON UNIT  50 AT TIME STEP     10, STRESS PERIOD      8
 UBUDSV SAVING "     CLN STORAGE" ON UNIT 144 AT TIME STEP     10, STRESS PERIOD       8
 UBUDSVU SAVING "   CONSTANT HEAD" ON UNIT  50 AT TIME STEP     10, STRESS PERIOD      8
 UBUDSVU SAVING "   FLOW JA FACE " ON UNIT  50 AT TIME STEP     10, STRESS PERIOD      8
 UBUDSVU SAVING "             CLN" ON UNIT  50 AT TIME STEP     10, STRESS PERIOD      8
 UBUDSVU SAVING "  CLN CONST HEAD" ON UNIT 144 AT TIME STEP     10, STRESS PERIOD      8
 UBUDSVU SAVING "   FLOW CLN FACE" ON UNIT 144 AT TIME STEP     10, STRESS PERIOD      8
 UBUDSVU SAVING "             GWF" ON UNIT 144 AT TIME STEP     10, STRESS PERIOD      8
 UBUDSVU SAVING "           WELLS" ON UNIT  50 AT TIME STEP     10, STRESS PERIOD      8
 UBUDSVU SAVING "           WELLS" ON UNIT 144 AT TIME STEP     10, STRESS PERIOD      8

 HEAD WILL BE SAVED ON UNIT       30 AT END OF TIME STEP       10, STRESS PERIOD        8

 DRAWDOWN WILL BE SAVED ON UNIT   31 AT END OF TIME STEP  10, STRESS PERIOD    8

 CLN HEAD WILL BE SAVED ON UNIT   77 AT END OF TIME STEP  10, STRESS PERIOD    8
1
  VOLUMETRIC BUDGET FOR ENTIRE MODEL AT END OF TIME STEP      10 IN STRESS PERIOD       8
  ---------------------------------------------------------------------------------------

     CUMULATIVE VOLUMES      L**3       RATES FOR THIS TIME STEP      L**3/T
     ------------------                 ------------------------

           IN:                                      IN:
           ---                                      ---
             STORAGE =        1200.0000               STORAGE =           5.0000
         CLN STORAGE =           0.0000           CLN STORAGE =           0.0000
       CONSTANT HEAD =           0.0000         CONSTANT HEAD =           0.0000
      CLN CONST HEAD =           0.0000        CLN CONST HEAD =           0.0000
               WELLS =           0.0000                 WELLS =           0.0000

            TOTAL IN =        1200.0000              TOTAL IN =           5.0000

          OUT:                                     OUT:
          ----                                     ----
             STORAGE =           0.0000               STORAGE =           0.0000
         CLN STORAGE =           0.0000           CLN STORAGE =           0.0000
       CONSTANT HEAD =           0.0000         CONSTANT HEAD =           0.0000
      CLN CONST HEAD =           0.0000        CLN CONST HEAD =           0.0000
               WELLS =        1200.0000                 WELLS =           5.0000

           TOTAL OUT =        1200.0000             TOTAL OUT =           5.0000

            IN - OUT =       1.2144E-05              IN - OUT =       3.5464E-08

 PERCENT DISCREPANCY =           0.00     PERCENT DISCREPANCY =           0.00






          TIME SUMMARY AT END OF TIME STEP        10 IN STRESS PERIOD         8
                    SECONDS     MINUTES      HOURS       DAYS        YEARS
                    -----------------------------------------------------------
   TIME STEP LENGTH 5.15209E+05  8586.8      143.11      5.9631     1.63260E-02
 STRESS PERIOD TIME 2.59200E+06  43200.      720.00      30.000     8.21355E-02
         TOTAL TIME 2.07360E+07 3.45600E+05  5760.0      240.00     0.65708    
1
 ------------------------------------------------------------------------------------------------------------
 
 SOLVING FOR TRANSPORT 

 ------------------------------------------------------------------------------------------------------------------------
     1 CALLS TO SPARSE MATRIX SOLVER PACKAGE IN TRANSPORT TIME STEP      10 STRESS PERIOD       8 SPECIES  1

 TOTAL OF       1OUTER ITERATIONS
  MAXIMUM CHANGE FOR EACH ITERATION:
   MAX. CHANGE        NODE  MAX. CHANGE        NODE  MAX. CHANGE        NODE  MAX. CHANGE        NODE  MAX. CHANGE        NODE
 ------------------------------------------------------------------------------------------------------------------------------------
  -0.43943E-10,        191

  MAXIMUM CHANGE FOR CLN NODE AT EACH ITERATION:
   MAX. CHANGE    CLN-CELL  MAX. CHANGE    CLN-CELL  MAX. CHANGE    CLN-CELL  MAX. CHANGE    CLN-CELL  MAX. CHANGE    CLN-CELL
 ------------------------------------------------------------------------------------------------------------------------------------
   0.60923E-09,          1
     TRANSPORT SOLUTION COMPLETE FOR COMPONENT SPECIES NUMBER    1
     ------------------------------------------------------------
 UBUDSVU SAVING "    MASS STORAGE" ON UNIT 145 AT TIME STEP     10, STRESS PERIOD      8
 UBUDSVU SAVING "CLN MASS STORAGE" ON UNIT 145 AT TIME STEP     10, STRESS PERIOD      8
 UBUDSVU SAVING "CNST H MASS FLUX" ON UNIT 145 AT TIME STEP     10, STRESS PERIOD      8
 UBUDSVU SAVING "  WELL MASS FLUX" ON UNIT 145 AT TIME STEP     10, STRESS PERIOD      8

 TRANSPORT SOLUTION COMPLETE FOR ALL SPECIES, SORTING OUTPUT FOR CONCENTRATIONS AND MASS BALANCE
 ----------------------------------------------------------------------------------------------------
     TRANSPORT OUTPUT FOR COMPONENT SPECIES NUMBER    1
     ------------------------------------------------------------

 CONC WILL BE SAVED ON UNIT  132 AT END OF TIME STEP       10, STRESS PERIOD        8

 CLN CONC WILL BE SAVED ON UNIT  188 AT END OF TIME STEP  10, STRESS PERIOD    8
1
  VOLUMETRIC BUDGET FOR ENTIRE MODEL AT END OF TIME STEP      10 IN STRESS PERIOD       8
  ---------------------------------------------------------------------------------------

     CUMULATIVE VOLUMES      L**3       RATES FOR THIS TIME STEP      L**3/T
     ------------------                 ------------------------

           IN:                                      IN:
           ---                                      ---
        MASS STORAGE =         120.0000          MASS STORAGE =           0.5000
    CNST H MASS FLUX =           0.0000      CNST H MASS FLUX =           0.0000
      WELL MASS FLUX =           0.0000        WELL MASS FLUX =           0.0000

            TOTAL IN =         120.0000              TOTAL IN =           0.5000

          OUT:                                     OUT:
          ----                                     ----
        MASS STORAGE =           0.2827          MASS STORAGE =       2.4591E-10
    CNST H MASS FLUX =           0.0000      CNST H MASS FLUX =           0.0000
      WELL MASS FLUX =         119.7173        WELL MASS FLUX =           0.5000

           TOTAL OUT =         120.0000             TOTAL OUT =           0.5000

            IN - OUT =       1.7479E-11              IN - OUT =      -2.4591E-10

 PERCENT DISCREPANCY =           0.00     PERCENT DISCREPANCY =          -0.00






          TIME SUMMARY AT END OF TIME STEP        10 IN STRESS PERIOD         8
                    SECONDS     MINUTES      HOURS       DAYS        YEARS
                    -----------------------------------------------------------
   TIME STEP LENGTH 5.15209E+05  8586.8      143.11      5.9631     1.63260E-02
 STRESS PERIOD TIME 2.59200E+06  43200.      720.00      30.000     8.21355E-02
         TOTAL TIME 2.07360E+07 3.45600E+05  5760.0      240.00     0.65708    
1
1
                            STRESS PERIOD NO.    9, LENGTH =   30.00000    
                            -----------------------------------------------

                              NUMBER OF TIME STEPS =        10

                               MULTIPLIER FOR DELT =     1.200

                            INITIAL TIME STEP SIZE =   1.155682    

 WEL -- WELL PACKAGE, VERSION 7, 5/2/2005 INPUT READ FROM UNIT   12

 WELL NO.  CLN-NODE       STRESS FACTOR         C01             
 ---------------------------------------------------------------
        1            3      -5.000           0.000           0.000    

      1 WELL 
 -------------------------------------------------------------------------------------
 
 SOLVING FOR HEAD 

 Outer-Iteration  Inner-Iteration  Backtracking  Number of        Incoming       Outgoing  Maximum HeadChange      Maximum Head Change
     Number           Count           Flag       Backtracks       Residual       Residual           Value              Location
        1                             0             0          0.408541E-01     0.408541E-01
        1                5                                                                       -0.567937E-01                 1           GWF-node number
        1                5                                                                       -0.532058E-01                 2           CLN-node number
        2                             0             0          0.209032E-15     0.209032E-15
        2                1                                                                        0.830897E-08               190           GWF-node number
        2                1                                                                        0.245682E-07                 3           CLN-node number


     2 CALLS TO SPARSE MATRIX SOLVER PACKAGE  IN FLOW TIME STEP       1 STRESS PERIOD       9

 TOTAL OF       2OUTER ITERATIONS
  MAXIMUM CHANGE FOR EACH ITERATION:
   MAX. CHANGE        NODE  MAX. CHANGE        NODE  MAX. CHANGE        NODE  MAX. CHANGE        NODE  MAX. CHANGE        NODE
 ------------------------------------------------------------------------------------------------------------------------------------
  -0.56794E-01,          1  0.83090E-08,        190

  MAXIMUM CHANGE FOR CLN NODE AT EACH ITERATION:
   MAX. CHANGE    CLN-CELL  MAX. CHANGE    CLN-CELL  MAX. CHANGE    CLN-CELL  MAX. CHANGE    CLN-CELL  MAX. CHANGE    CLN-CELL
 ------------------------------------------------------------------------------------------------------------------------------------
  -0.53206E-01,          2  0.24568E-07,          3

 HEAD/DRAWDOWN PRINTOUT FLAG = 1     TOTAL BUDGET PRINTOUT FLAG = 1
 CELL-BY-CELL FLOW TERM FLAG = 1
 CONCENTRATION PRINTOUT FLAG = 1

 OUTPUT FLAGS FOR ALL LAYERS ARE THE SAME:
   HEAD    DRAWDOWN  HEAD  DRAWDOWN    CONC    CONC
 PRINTOUT  PRINTOUT  SAVE    SAVE    PRINTOUT  SAVE
 ---------------------------------------------------
     0         0       1       1       0       1
 UBUDSVU SAVING "         STORAGE" ON UNIT  50 AT TIME STEP      1, STRESS PERIOD      9
 UBUDSV SAVING "     CLN STORAGE" ON UNIT 144 AT TIME STEP      1, STRESS PERIOD       9
 UBUDSVU SAVING "   CONSTANT HEAD" ON UNIT  50 AT TIME STEP      1, STRESS PERIOD      9
 UBUDSVU SAVING "   FLOW JA FACE " ON UNIT  50 AT TIME STEP      1, STRESS PERIOD      9
 UBUDSVU SAVING "             CLN" ON UNIT  50 AT TIME STEP      1, STRESS PERIOD      9
 UBUDSVU SAVING "  CLN CONST HEAD" ON UNIT 144 AT TIME STEP      1, STRESS PERIOD      9
 UBUDSVU SAVING "   FLOW CLN FACE" ON UNIT 144 AT TIME STEP      1, STRESS PERIOD      9
 UBUDSVU SAVING "             GWF" ON UNIT 144 AT TIME STEP      1, STRESS PERIOD      9
 UBUDSVU SAVING "           WELLS" ON UNIT  50 AT TIME STEP      1, STRESS PERIOD      9
 UBUDSVU SAVING "           WELLS" ON UNIT 144 AT TIME STEP      1, STRESS PERIOD      9

 HEAD WILL BE SAVED ON UNIT       30 AT END OF TIME STEP        1, STRESS PERIOD        9

 DRAWDOWN WILL BE SAVED ON UNIT   31 AT END OF TIME STEP   1, STRESS PERIOD    9

 CLN HEAD WILL BE SAVED ON UNIT   77 AT END OF TIME STEP   1, STRESS PERIOD    9
1
  VOLUMETRIC BUDGET FOR ENTIRE MODEL AT END OF TIME STEP       1 IN STRESS PERIOD       9
  ---------------------------------------------------------------------------------------

     CUMULATIVE VOLUMES      L**3       RATES FOR THIS TIME STEP      L**3/T
     ------------------                 ------------------------

           IN:                                      IN:
           ---                                      ---
             STORAGE =        1205.7784               STORAGE =           5.0000
         CLN STORAGE =           0.0000           CLN STORAGE =           0.0000
       CONSTANT HEAD =           0.0000         CONSTANT HEAD =           0.0000
      CLN CONST HEAD =           0.0000        CLN CONST HEAD =           0.0000
               WELLS =           0.0000                 WELLS =           0.0000

            TOTAL IN =        1205.7784              TOTAL IN =           5.0000

          OUT:                                     OUT:
          ----                                     ----
             STORAGE =           0.0000               STORAGE =           0.0000
         CLN STORAGE =           0.0000           CLN STORAGE =           0.0000
       CONSTANT HEAD =           0.0000         CONSTANT HEAD =           0.0000
      CLN CONST HEAD =           0.0000        CLN CONST HEAD =           0.0000
               WELLS =        1205.7784                 WELLS =           5.0000

           TOTAL OUT =        1205.7784             TOTAL OUT =           5.0000

            IN - OUT =       1.2204E-05              IN - OUT =       5.2130E-08

 PERCENT DISCREPANCY =           0.00     PERCENT DISCREPANCY =           0.00






          TIME SUMMARY AT END OF TIME STEP         1 IN STRESS PERIOD         9
                    SECONDS     MINUTES      HOURS       DAYS        YEARS
                    -----------------------------------------------------------
   TIME STEP LENGTH  99851.      1664.2      27.736      1.1557     3.16409E-03
 STRESS PERIOD TIME  99851.      1664.2      27.736      1.1557     3.16409E-03
         TOTAL TIME 2.08358E+07 3.47264E+05  5787.7      241.16     0.66025    
1
 ------------------------------------------------------------------------------------------------------------
 
 SOLVING FOR TRANSPORT 

 ------------------------------------------------------------------------------------------------------------------------
     1 CALLS TO SPARSE MATRIX SOLVER PACKAGE IN TRANSPORT TIME STEP       1 STRESS PERIOD       9 SPECIES  1

 TOTAL OF       1OUTER ITERATIONS
  MAXIMUM CHANGE FOR EACH ITERATION:
   MAX. CHANGE        NODE  MAX. CHANGE        NODE  MAX. CHANGE        NODE  MAX. CHANGE        NODE  MAX. CHANGE        NODE
 ------------------------------------------------------------------------------------------------------------------------------------
   0.64057E-12,        190

  MAXIMUM CHANGE FOR CLN NODE AT EACH ITERATION:
   MAX. CHANGE    CLN-CELL  MAX. CHANGE    CLN-CELL  MAX. CHANGE    CLN-CELL  MAX. CHANGE    CLN-CELL  MAX. CHANGE    CLN-CELL
 ------------------------------------------------------------------------------------------------------------------------------------
   0.66902E-09,          2
     TRANSPORT SOLUTION COMPLETE FOR COMPONENT SPECIES NUMBER    1
     ------------------------------------------------------------
 UBUDSVU SAVING "    MASS STORAGE" ON UNIT 145 AT TIME STEP      1, STRESS PERIOD      9
 UBUDSVU SAVING "CLN MASS STORAGE" ON UNIT 145 AT TIME STEP      1, STRESS PERIOD      9
 UBUDSVU SAVING "CNST H MASS FLUX" ON UNIT 145 AT TIME STEP      1, STRESS PERIOD      9
 UBUDSVU SAVING "  WELL MASS FLUX" ON UNIT 145 AT TIME STEP      1, STRESS PERIOD      9

 TRANSPORT SOLUTION COMPLETE FOR ALL SPECIES, SORTING OUTPUT FOR CONCENTRATIONS AND MASS BALANCE
 ----------------------------------------------------------------------------------------------------
     TRANSPORT OUTPUT FOR COMPONENT SPECIES NUMBER    1
     ------------------------------------------------------------

 CONC WILL BE SAVED ON UNIT  132 AT END OF TIME STEP        1, STRESS PERIOD        9

 CLN CONC WILL BE SAVED ON UNIT  188 AT END OF TIME STEP   1, STRESS PERIOD    9
1
  VOLUMETRIC BUDGET FOR ENTIRE MODEL AT END OF TIME STEP       1 IN STRESS PERIOD       9
  ---------------------------------------------------------------------------------------

     CUMULATIVE VOLUMES      L**3       RATES FOR THIS TIME STEP      L**3/T
     ------------------                 ------------------------

           IN:                                      IN:
           ---                                      ---
        MASS STORAGE =         120.5778          MASS STORAGE =           0.5000
    CNST H MASS FLUX =           0.0000      CNST H MASS FLUX =           0.0000
      WELL MASS FLUX =           0.0000        WELL MASS FLUX =           0.0000

            TOTAL IN =         120.5778              TOTAL IN =           0.5000

          OUT:                                     OUT:
          ----                                     ----
        MASS STORAGE =           0.2827          MASS STORAGE =       7.2632E-11
    CNST H MASS FLUX =           0.0000      CNST H MASS FLUX =           0.0000
      WELL MASS FLUX =         120.2951        WELL MASS FLUX =           0.5000

           TOTAL OUT =         120.5778             TOTAL OUT =           0.5000

            IN - OUT =       1.7550E-11              IN - OUT =      -7.2632E-11

 PERCENT DISCREPANCY =           0.00     PERCENT DISCREPANCY =          -0.00






          TIME SUMMARY AT END OF TIME STEP         1 IN STRESS PERIOD         9
                    SECONDS     MINUTES      HOURS       DAYS        YEARS
                    -----------------------------------------------------------
   TIME STEP LENGTH  99851.      1664.2      27.736      1.1557     3.16409E-03
 STRESS PERIOD TIME  99851.      1664.2      27.736      1.1557     3.16409E-03
         TOTAL TIME 2.08358E+07 3.47264E+05  5787.7      241.16     0.66025    
1
 -------------------------------------------------------------------------------------
 
 SOLVING FOR HEAD 

 Outer-Iteration  Inner-Iteration  Backtracking  Number of        Incoming       Outgoing  Maximum HeadChange      Maximum Head Change
     Number           Count           Flag       Backtracks       Residual       Residual           Value              Location
        1                             0             0          0.408196E-01     0.408196E-01
        1                5                                                                       -0.681028E-01                 1           GWF-node number
        1                5                                                                       -0.638043E-01                 3           CLN-node number
        2                             0             0          0.749203E-14     0.749203E-14
        2                1                                                                       -0.914481E-07               190           GWF-node number
        2                1                                                                       -0.244130E-06                 3           CLN-node number
     2 CALLS TO SPARSE MATRIX SOLVER PACKAGE  IN FLOW TIME STEP       2 STRESS PERIOD       9

 TOTAL OF       2OUTER ITERATIONS
  MAXIMUM CHANGE FOR EACH ITERATION:
   MAX. CHANGE        NODE  MAX. CHANGE        NODE  MAX. CHANGE        NODE  MAX. CHANGE        NODE  MAX. CHANGE        NODE
 ------------------------------------------------------------------------------------------------------------------------------------
  -0.68103E-01,          1 -0.91448E-07,        190

  MAXIMUM CHANGE FOR CLN NODE AT EACH ITERATION:
   MAX. CHANGE    CLN-CELL  MAX. CHANGE    CLN-CELL  MAX. CHANGE    CLN-CELL  MAX. CHANGE    CLN-CELL  MAX. CHANGE    CLN-CELL
 ------------------------------------------------------------------------------------------------------------------------------------
  -0.63804E-01,          3 -0.24413E-06,          3

 HEAD/DRAWDOWN PRINTOUT FLAG = 1     TOTAL BUDGET PRINTOUT FLAG = 1
 CELL-BY-CELL FLOW TERM FLAG = 1
 CONCENTRATION PRINTOUT FLAG = 1

 OUTPUT FLAGS FOR ALL LAYERS ARE THE SAME:
   HEAD    DRAWDOWN  HEAD  DRAWDOWN    CONC    CONC
 PRINTOUT  PRINTOUT  SAVE    SAVE    PRINTOUT  SAVE
 ---------------------------------------------------
     0         0       1       1       0       1
 UBUDSVU SAVING "         STORAGE" ON UNIT  50 AT TIME STEP      2, STRESS PERIOD      9
 UBUDSV SAVING "     CLN STORAGE" ON UNIT 144 AT TIME STEP      2, STRESS PERIOD       9
 UBUDSVU SAVING "   CONSTANT HEAD" ON UNIT  50 AT TIME STEP      2, STRESS PERIOD      9
 UBUDSVU SAVING "   FLOW JA FACE " ON UNIT  50 AT TIME STEP      2, STRESS PERIOD      9
 UBUDSVU SAVING "             CLN" ON UNIT  50 AT TIME STEP      2, STRESS PERIOD      9
 UBUDSVU SAVING "  CLN CONST HEAD" ON UNIT 144 AT TIME STEP      2, STRESS PERIOD      9
 UBUDSVU SAVING "   FLOW CLN FACE" ON UNIT 144 AT TIME STEP      2, STRESS PERIOD      9
 UBUDSVU SAVING "             GWF" ON UNIT 144 AT TIME STEP      2, STRESS PERIOD      9
 UBUDSVU SAVING "           WELLS" ON UNIT  50 AT TIME STEP      2, STRESS PERIOD      9
 UBUDSVU SAVING "           WELLS" ON UNIT 144 AT TIME STEP      2, STRESS PERIOD      9

 HEAD WILL BE SAVED ON UNIT       30 AT END OF TIME STEP        2, STRESS PERIOD        9

 DRAWDOWN WILL BE SAVED ON UNIT   31 AT END OF TIME STEP   2, STRESS PERIOD    9

 CLN HEAD WILL BE SAVED ON UNIT   77 AT END OF TIME STEP   2, STRESS PERIOD    9
1
  VOLUMETRIC BUDGET FOR ENTIRE MODEL AT END OF TIME STEP       2 IN STRESS PERIOD       9
  ---------------------------------------------------------------------------------------

     CUMULATIVE VOLUMES      L**3       RATES FOR THIS TIME STEP      L**3/T
     ------------------                 ------------------------

           IN:                                      IN:
           ---                                      ---
             STORAGE =        1212.7125               STORAGE =           5.0000
         CLN STORAGE =           0.0000           CLN STORAGE =           0.0000
       CONSTANT HEAD =           0.0000         CONSTANT HEAD =           0.0000
      CLN CONST HEAD =           0.0000        CLN CONST HEAD =           0.0000
               WELLS =           0.0000                 WELLS =           0.0000

            TOTAL IN =        1212.7125              TOTAL IN =           5.0000

          OUT:                                     OUT:
          ----                                     ----
             STORAGE =           0.0000               STORAGE =           0.0000
         CLN STORAGE =           0.0000           CLN STORAGE =           0.0000
       CONSTANT HEAD =           0.0000         CONSTANT HEAD =           0.0000
      CLN CONST HEAD =           0.0000        CLN CONST HEAD =           0.0000
               WELLS =        1212.7125                 WELLS =           5.0000

           TOTAL OUT =        1212.7125             TOTAL OUT =           5.0000

            IN - OUT =       1.2262E-05              IN - OUT =       4.2028E-08

 PERCENT DISCREPANCY =           0.00     PERCENT DISCREPANCY =           0.00






          TIME SUMMARY AT END OF TIME STEP         2 IN STRESS PERIOD         9
                    SECONDS     MINUTES      HOURS       DAYS        YEARS
                    -----------------------------------------------------------
   TIME STEP LENGTH 1.19821E+05  1997.0      33.284      1.3868     3.79690E-03
 STRESS PERIOD TIME 2.19672E+05  3661.2      61.020      2.5425     6.96099E-03
         TOTAL TIME 2.09557E+07 3.49261E+05  5821.0      242.54     0.66405    
1
 ------------------------------------------------------------------------------------------------------------
 
 SOLVING FOR TRANSPORT 

 ------------------------------------------------------------------------------------------------------------------------
     1 CALLS TO SPARSE MATRIX SOLVER PACKAGE IN TRANSPORT TIME STEP       2 STRESS PERIOD       9 SPECIES  1

 TOTAL OF       1OUTER ITERATIONS
  MAXIMUM CHANGE FOR EACH ITERATION:
   MAX. CHANGE        NODE  MAX. CHANGE        NODE  MAX. CHANGE        NODE  MAX. CHANGE        NODE  MAX. CHANGE        NODE
 ------------------------------------------------------------------------------------------------------------------------------------
  -0.14182E-10,        191

  MAXIMUM CHANGE FOR CLN NODE AT EACH ITERATION:
   MAX. CHANGE    CLN-CELL  MAX. CHANGE    CLN-CELL  MAX. CHANGE    CLN-CELL  MAX. CHANGE    CLN-CELL  MAX. CHANGE    CLN-CELL
 ------------------------------------------------------------------------------------------------------------------------------------
   0.63153E-09,          3
     TRANSPORT SOLUTION COMPLETE FOR COMPONENT SPECIES NUMBER    1
     ------------------------------------------------------------
 UBUDSVU SAVING "    MASS STORAGE" ON UNIT 145 AT TIME STEP      2, STRESS PERIOD      9
 UBUDSVU SAVING "CLN MASS STORAGE" ON UNIT 145 AT TIME STEP      2, STRESS PERIOD      9
 UBUDSVU SAVING "CNST H MASS FLUX" ON UNIT 145 AT TIME STEP      2, STRESS PERIOD      9
 UBUDSVU SAVING "  WELL MASS FLUX" ON UNIT 145 AT TIME STEP      2, STRESS PERIOD      9

 TRANSPORT SOLUTION COMPLETE FOR ALL SPECIES, SORTING OUTPUT FOR CONCENTRATIONS AND MASS BALANCE
 ----------------------------------------------------------------------------------------------------
     TRANSPORT OUTPUT FOR COMPONENT SPECIES NUMBER    1
     ------------------------------------------------------------

 CONC WILL BE SAVED ON UNIT  132 AT END OF TIME STEP        2, STRESS PERIOD        9

 CLN CONC WILL BE SAVED ON UNIT  188 AT END OF TIME STEP   2, STRESS PERIOD    9
1
  VOLUMETRIC BUDGET FOR ENTIRE MODEL AT END OF TIME STEP       2 IN STRESS PERIOD       9
  ---------------------------------------------------------------------------------------

     CUMULATIVE VOLUMES      L**3       RATES FOR THIS TIME STEP      L**3/T
     ------------------                 ------------------------

           IN:                                      IN:
           ---                                      ---
        MASS STORAGE =         121.2712          MASS STORAGE =           0.5000
    CNST H MASS FLUX =           0.0000      CNST H MASS FLUX =           0.0000
      WELL MASS FLUX =           0.0000        WELL MASS FLUX =           0.0000

            TOTAL IN =         121.2712              TOTAL IN =           0.5000

          OUT:                                     OUT:
          ----                                     ----
        MASS STORAGE =           0.2827          MASS STORAGE =       6.4262E-10
    CNST H MASS FLUX =           0.0000      CNST H MASS FLUX =           0.0000
      WELL MASS FLUX =         120.9885        WELL MASS FLUX =           0.5000

           TOTAL OUT =         121.2712             TOTAL OUT =           0.5000

            IN - OUT =       1.6556E-11              IN - OUT =      -6.4262E-10

 PERCENT DISCREPANCY =           0.00     PERCENT DISCREPANCY =          -0.00






          TIME SUMMARY AT END OF TIME STEP         2 IN STRESS PERIOD         9
                    SECONDS     MINUTES      HOURS       DAYS        YEARS
                    -----------------------------------------------------------
   TIME STEP LENGTH 1.19821E+05  1997.0      33.284      1.3868     3.79690E-03
 STRESS PERIOD TIME 2.19672E+05  3661.2      61.020      2.5425     6.96099E-03
         TOTAL TIME 2.09557E+07 3.49261E+05  5821.0      242.54     0.66405    
1
 -------------------------------------------------------------------------------------
 
 SOLVING FOR HEAD 

 Outer-Iteration  Inner-Iteration  Backtracking  Number of        Incoming       Outgoing  Maximum HeadChange      Maximum Head Change
     Number           Count           Flag       Backtracks       Residual       Residual           Value              Location
        1                             0             0          0.407784E-01     0.407784E-01
        1                5                                                                       -0.816522E-01                 1           GWF-node number
        1                5                                                                       -0.765043E-01                 1           CLN-node number
        2                             0             0          0.265566E-14     0.265566E-14
        2                1                                                                       -0.247950E-07               190           GWF-node number
        2                1                                                                       -0.473455E-07                 3           CLN-node number
     2 CALLS TO SPARSE MATRIX SOLVER PACKAGE  IN FLOW TIME STEP       3 STRESS PERIOD       9

 TOTAL OF       2OUTER ITERATIONS
  MAXIMUM CHANGE FOR EACH ITERATION:
   MAX. CHANGE        NODE  MAX. CHANGE        NODE  MAX. CHANGE        NODE  MAX. CHANGE        NODE  MAX. CHANGE        NODE
 ------------------------------------------------------------------------------------------------------------------------------------
  -0.81652E-01,          1 -0.24795E-07,        190

  MAXIMUM CHANGE FOR CLN NODE AT EACH ITERATION:
   MAX. CHANGE    CLN-CELL  MAX. CHANGE    CLN-CELL  MAX. CHANGE    CLN-CELL  MAX. CHANGE    CLN-CELL  MAX. CHANGE    CLN-CELL
 ------------------------------------------------------------------------------------------------------------------------------------
  -0.76504E-01,          1 -0.47345E-07,          3

 HEAD/DRAWDOWN PRINTOUT FLAG = 1     TOTAL BUDGET PRINTOUT FLAG = 1
 CELL-BY-CELL FLOW TERM FLAG = 1
 CONCENTRATION PRINTOUT FLAG = 1

 OUTPUT FLAGS FOR ALL LAYERS ARE THE SAME:
   HEAD    DRAWDOWN  HEAD  DRAWDOWN    CONC    CONC
 PRINTOUT  PRINTOUT  SAVE    SAVE    PRINTOUT  SAVE
 ---------------------------------------------------
     0         0       1       1       0       1
 UBUDSVU SAVING "         STORAGE" ON UNIT  50 AT TIME STEP      3, STRESS PERIOD      9
 UBUDSV SAVING "     CLN STORAGE" ON UNIT 144 AT TIME STEP      3, STRESS PERIOD       9
 UBUDSVU SAVING "   CONSTANT HEAD" ON UNIT  50 AT TIME STEP      3, STRESS PERIOD      9
 UBUDSVU SAVING "   FLOW JA FACE " ON UNIT  50 AT TIME STEP      3, STRESS PERIOD      9
 UBUDSVU SAVING "             CLN" ON UNIT  50 AT TIME STEP      3, STRESS PERIOD      9
 UBUDSVU SAVING "  CLN CONST HEAD" ON UNIT 144 AT TIME STEP      3, STRESS PERIOD      9
 UBUDSVU SAVING "   FLOW CLN FACE" ON UNIT 144 AT TIME STEP      3, STRESS PERIOD      9
 UBUDSVU SAVING "             GWF" ON UNIT 144 AT TIME STEP      3, STRESS PERIOD      9
 UBUDSVU SAVING "           WELLS" ON UNIT  50 AT TIME STEP      3, STRESS PERIOD      9
 UBUDSVU SAVING "           WELLS" ON UNIT 144 AT TIME STEP      3, STRESS PERIOD      9

 HEAD WILL BE SAVED ON UNIT       30 AT END OF TIME STEP        3, STRESS PERIOD        9

 DRAWDOWN WILL BE SAVED ON UNIT   31 AT END OF TIME STEP   3, STRESS PERIOD    9

 CLN HEAD WILL BE SAVED ON UNIT   77 AT END OF TIME STEP   3, STRESS PERIOD    9
1
  VOLUMETRIC BUDGET FOR ENTIRE MODEL AT END OF TIME STEP       3 IN STRESS PERIOD       9
  ---------------------------------------------------------------------------------------

     CUMULATIVE VOLUMES      L**3       RATES FOR THIS TIME STEP      L**3/T
     ------------------                 ------------------------

           IN:                                      IN:
           ---                                      ---
             STORAGE =        1221.0334               STORAGE =           5.0000
         CLN STORAGE =           0.0000           CLN STORAGE =           0.0000
       CONSTANT HEAD =           0.0000         CONSTANT HEAD =           0.0000
      CLN CONST HEAD =           0.0000        CLN CONST HEAD =           0.0000
               WELLS =           0.0000                 WELLS =           0.0000

            TOTAL IN =        1221.0334              TOTAL IN =           5.0000

          OUT:                                     OUT:
          ----                                     ----
             STORAGE =           0.0000               STORAGE =           0.0000
         CLN STORAGE =           0.0000           CLN STORAGE =           0.0000
       CONSTANT HEAD =           0.0000         CONSTANT HEAD =           0.0000
      CLN CONST HEAD =           0.0000        CLN CONST HEAD =           0.0000
               WELLS =        1221.0334                 WELLS =           5.0000

           TOTAL OUT =        1221.0334             TOTAL OUT =           5.0000

            IN - OUT =       1.2343E-05              IN - OUT =       4.8297E-08

 PERCENT DISCREPANCY =           0.00     PERCENT DISCREPANCY =           0.00






          TIME SUMMARY AT END OF TIME STEP         3 IN STRESS PERIOD         9
                    SECONDS     MINUTES      HOURS       DAYS        YEARS
                    -----------------------------------------------------------
   TIME STEP LENGTH 1.43785E+05  2396.4      39.940      1.6642     4.55628E-03
 STRESS PERIOD TIME 3.63458E+05  6057.6      100.96      4.2067     1.15173E-02
         TOTAL TIME 2.10995E+07 3.51658E+05  5861.0      244.21     0.66860    
1
 ------------------------------------------------------------------------------------------------------------
 
 SOLVING FOR TRANSPORT 

 ------------------------------------------------------------------------------------------------------------------------
     1 CALLS TO SPARSE MATRIX SOLVER PACKAGE IN TRANSPORT TIME STEP       3 STRESS PERIOD       9 SPECIES  1

 TOTAL OF       1OUTER ITERATIONS
  MAXIMUM CHANGE FOR EACH ITERATION:
   MAX. CHANGE        NODE  MAX. CHANGE        NODE  MAX. CHANGE        NODE  MAX. CHANGE        NODE  MAX. CHANGE        NODE
 ------------------------------------------------------------------------------------------------------------------------------------
  -0.49420E-11,        191

  MAXIMUM CHANGE FOR CLN NODE AT EACH ITERATION:
   MAX. CHANGE    CLN-CELL  MAX. CHANGE    CLN-CELL  MAX. CHANGE    CLN-CELL  MAX. CHANGE    CLN-CELL  MAX. CHANGE    CLN-CELL
 ------------------------------------------------------------------------------------------------------------------------------------
  -0.11675E-08,          2
     TRANSPORT SOLUTION COMPLETE FOR COMPONENT SPECIES NUMBER    1
     ------------------------------------------------------------
 UBUDSVU SAVING "    MASS STORAGE" ON UNIT 145 AT TIME STEP      3, STRESS PERIOD      9
 UBUDSVU SAVING "CLN MASS STORAGE" ON UNIT 145 AT TIME STEP      3, STRESS PERIOD      9
 UBUDSVU SAVING "CNST H MASS FLUX" ON UNIT 145 AT TIME STEP      3, STRESS PERIOD      9
 UBUDSVU SAVING "  WELL MASS FLUX" ON UNIT 145 AT TIME STEP      3, STRESS PERIOD      9

 TRANSPORT SOLUTION COMPLETE FOR ALL SPECIES, SORTING OUTPUT FOR CONCENTRATIONS AND MASS BALANCE
 ----------------------------------------------------------------------------------------------------
     TRANSPORT OUTPUT FOR COMPONENT SPECIES NUMBER    1
     ------------------------------------------------------------

 CONC WILL BE SAVED ON UNIT  132 AT END OF TIME STEP        3, STRESS PERIOD        9

 CLN CONC WILL BE SAVED ON UNIT  188 AT END OF TIME STEP   3, STRESS PERIOD    9
1
  VOLUMETRIC BUDGET FOR ENTIRE MODEL AT END OF TIME STEP       3 IN STRESS PERIOD       9
  ---------------------------------------------------------------------------------------

     CUMULATIVE VOLUMES      L**3       RATES FOR THIS TIME STEP      L**3/T
     ------------------                 ------------------------

           IN:                                      IN:
           ---                                      ---
        MASS STORAGE =         122.1033          MASS STORAGE =           0.5000
    CNST H MASS FLUX =           0.0000      CNST H MASS FLUX =           0.0000
      WELL MASS FLUX =           0.0000        WELL MASS FLUX =           0.0000

            TOTAL IN =         122.1033              TOTAL IN =           0.5000

          OUT:                                     OUT:
          ----                                     ----
        MASS STORAGE =           0.2827          MASS STORAGE =           0.0000
    CNST H MASS FLUX =           0.0000      CNST H MASS FLUX =           0.0000
      WELL MASS FLUX =         121.8206        WELL MASS FLUX =           0.5000

           TOTAL OUT =         122.1033             TOTAL OUT =           0.5000

            IN - OUT =       1.5987E-11              IN - OUT =           0.0000

 PERCENT DISCREPANCY =           0.00     PERCENT DISCREPANCY =           0.00






          TIME SUMMARY AT END OF TIME STEP         3 IN STRESS PERIOD         9
                    SECONDS     MINUTES      HOURS       DAYS        YEARS
                    -----------------------------------------------------------
   TIME STEP LENGTH 1.43785E+05  2396.4      39.940      1.6642     4.55628E-03
 STRESS PERIOD TIME 3.63458E+05  6057.6      100.96      4.2067     1.15173E-02
         TOTAL TIME 2.10995E+07 3.51658E+05  5861.0      244.21     0.66860    
1
 -------------------------------------------------------------------------------------
 
 SOLVING FOR HEAD 

 Outer-Iteration  Inner-Iteration  Backtracking  Number of        Incoming       Outgoing  Maximum HeadChange      Maximum Head Change
     Number           Count           Flag       Backtracks       Residual       Residual           Value              Location
        1                             0             0          0.407291E-01     0.407291E-01
        1                5                                                                       -0.978806E-01                 1           GWF-node number
        1                5                                                                       -0.917178E-01                 1           CLN-node number
        2                             0             0          0.929966E-14     0.929966E-14
        2                1                                                                       -0.517626E-07               406           GWF-node number
        2                1                                                                        0.410684E-07                 1           CLN-node number
     2 CALLS TO SPARSE MATRIX SOLVER PACKAGE  IN FLOW TIME STEP       4 STRESS PERIOD       9

 TOTAL OF       2OUTER ITERATIONS
  MAXIMUM CHANGE FOR EACH ITERATION:
   MAX. CHANGE        NODE  MAX. CHANGE        NODE  MAX. CHANGE        NODE  MAX. CHANGE        NODE  MAX. CHANGE        NODE
 ------------------------------------------------------------------------------------------------------------------------------------
  -0.97881E-01,          1 -0.51763E-07,        406

  MAXIMUM CHANGE FOR CLN NODE AT EACH ITERATION:
   MAX. CHANGE    CLN-CELL  MAX. CHANGE    CLN-CELL  MAX. CHANGE    CLN-CELL  MAX. CHANGE    CLN-CELL  MAX. CHANGE    CLN-CELL
 ------------------------------------------------------------------------------------------------------------------------------------
  -0.91718E-01,          1  0.41068E-07,          1

 HEAD/DRAWDOWN PRINTOUT FLAG = 1     TOTAL BUDGET PRINTOUT FLAG = 1
 CELL-BY-CELL FLOW TERM FLAG = 1
 CONCENTRATION PRINTOUT FLAG = 1

 OUTPUT FLAGS FOR ALL LAYERS ARE THE SAME:
   HEAD    DRAWDOWN  HEAD  DRAWDOWN    CONC    CONC
 PRINTOUT  PRINTOUT  SAVE    SAVE    PRINTOUT  SAVE
 ---------------------------------------------------
     0         0       1       1       0       1
 UBUDSVU SAVING "         STORAGE" ON UNIT  50 AT TIME STEP      4, STRESS PERIOD      9
 UBUDSV SAVING "     CLN STORAGE" ON UNIT 144 AT TIME STEP      4, STRESS PERIOD       9
 UBUDSVU SAVING "   CONSTANT HEAD" ON UNIT  50 AT TIME STEP      4, STRESS PERIOD      9
 UBUDSVU SAVING "   FLOW JA FACE " ON UNIT  50 AT TIME STEP      4, STRESS PERIOD      9
 UBUDSVU SAVING "             CLN" ON UNIT  50 AT TIME STEP      4, STRESS PERIOD      9
 UBUDSVU SAVING "  CLN CONST HEAD" ON UNIT 144 AT TIME STEP      4, STRESS PERIOD      9
 UBUDSVU SAVING "   FLOW CLN FACE" ON UNIT 144 AT TIME STEP      4, STRESS PERIOD      9
 UBUDSVU SAVING "             GWF" ON UNIT 144 AT TIME STEP      4, STRESS PERIOD      9
 UBUDSVU SAVING "           WELLS" ON UNIT  50 AT TIME STEP      4, STRESS PERIOD      9
 UBUDSVU SAVING "           WELLS" ON UNIT 144 AT TIME STEP      4, STRESS PERIOD      9

 HEAD WILL BE SAVED ON UNIT       30 AT END OF TIME STEP        4, STRESS PERIOD        9

 DRAWDOWN WILL BE SAVED ON UNIT   31 AT END OF TIME STEP   4, STRESS PERIOD    9

 CLN HEAD WILL BE SAVED ON UNIT   77 AT END OF TIME STEP   4, STRESS PERIOD    9
1
  VOLUMETRIC BUDGET FOR ENTIRE MODEL AT END OF TIME STEP       4 IN STRESS PERIOD       9
  ---------------------------------------------------------------------------------------

     CUMULATIVE VOLUMES      L**3       RATES FOR THIS TIME STEP      L**3/T
     ------------------                 ------------------------

           IN:                                      IN:
           ---                                      ---
             STORAGE =        1231.0185               STORAGE =           5.0000
         CLN STORAGE =           0.0000           CLN STORAGE =           0.0000
       CONSTANT HEAD =           0.0000         CONSTANT HEAD =           0.0000
      CLN CONST HEAD =           0.0000        CLN CONST HEAD =           0.0000
               WELLS =           0.0000                 WELLS =           0.0000

            TOTAL IN =        1231.0185              TOTAL IN =           5.0000

          OUT:                                     OUT:
          ----                                     ----
             STORAGE =           0.0000               STORAGE =           0.0000
         CLN STORAGE =           0.0000           CLN STORAGE =           0.0000
       CONSTANT HEAD =           0.0000         CONSTANT HEAD =           0.0000
      CLN CONST HEAD =           0.0000        CLN CONST HEAD =           0.0000
               WELLS =        1231.0185                 WELLS =           5.0000

           TOTAL OUT =        1231.0185             TOTAL OUT =           5.0000

            IN - OUT =       1.2411E-05              IN - OUT =       3.4289E-08

 PERCENT DISCREPANCY =           0.00     PERCENT DISCREPANCY =           0.00






          TIME SUMMARY AT END OF TIME STEP         4 IN STRESS PERIOD         9
                    SECONDS     MINUTES      HOURS       DAYS        YEARS
                    -----------------------------------------------------------
   TIME STEP LENGTH 1.72542E+05  2875.7      47.928      1.9970     5.46754E-03
 STRESS PERIOD TIME 5.36000E+05  8933.3      148.89      6.2037     1.69848E-02
         TOTAL TIME 2.12720E+07 3.54533E+05  5908.9      246.20     0.67407    
1
 ------------------------------------------------------------------------------------------------------------
 
 SOLVING FOR TRANSPORT 

 ------------------------------------------------------------------------------------------------------------------------
     1 CALLS TO SPARSE MATRIX SOLVER PACKAGE IN TRANSPORT TIME STEP       4 STRESS PERIOD       9 SPECIES  1

 TOTAL OF       1OUTER ITERATIONS
  MAXIMUM CHANGE FOR EACH ITERATION:
   MAX. CHANGE        NODE  MAX. CHANGE        NODE  MAX. CHANGE        NODE  MAX. CHANGE        NODE  MAX. CHANGE        NODE
 ------------------------------------------------------------------------------------------------------------------------------------
   0.88810E-12,        210

  MAXIMUM CHANGE FOR CLN NODE AT EACH ITERATION:
   MAX. CHANGE    CLN-CELL  MAX. CHANGE    CLN-CELL  MAX. CHANGE    CLN-CELL  MAX. CHANGE    CLN-CELL  MAX. CHANGE    CLN-CELL
 ------------------------------------------------------------------------------------------------------------------------------------
  -0.65630E-09,          3
     TRANSPORT SOLUTION COMPLETE FOR COMPONENT SPECIES NUMBER    1
     ------------------------------------------------------------
 UBUDSVU SAVING "    MASS STORAGE" ON UNIT 145 AT TIME STEP      4, STRESS PERIOD      9
 UBUDSVU SAVING "CLN MASS STORAGE" ON UNIT 145 AT TIME STEP      4, STRESS PERIOD      9
 UBUDSVU SAVING "CNST H MASS FLUX" ON UNIT 145 AT TIME STEP      4, STRESS PERIOD      9
 UBUDSVU SAVING "  WELL MASS FLUX" ON UNIT 145 AT TIME STEP      4, STRESS PERIOD      9

 TRANSPORT SOLUTION COMPLETE FOR ALL SPECIES, SORTING OUTPUT FOR CONCENTRATIONS AND MASS BALANCE
 ----------------------------------------------------------------------------------------------------
     TRANSPORT OUTPUT FOR COMPONENT SPECIES NUMBER    1
     ------------------------------------------------------------

 CONC WILL BE SAVED ON UNIT  132 AT END OF TIME STEP        4, STRESS PERIOD        9

 CLN CONC WILL BE SAVED ON UNIT  188 AT END OF TIME STEP   4, STRESS PERIOD    9
1
  VOLUMETRIC BUDGET FOR ENTIRE MODEL AT END OF TIME STEP       4 IN STRESS PERIOD       9
  ---------------------------------------------------------------------------------------

     CUMULATIVE VOLUMES      L**3       RATES FOR THIS TIME STEP      L**3/T
     ------------------                 ------------------------

           IN:                                      IN:
           ---                                      ---
        MASS STORAGE =         123.1019          MASS STORAGE =           0.5000
    CNST H MASS FLUX =           0.0000      CNST H MASS FLUX =           0.0000
      WELL MASS FLUX =           0.0000        WELL MASS FLUX =           0.0000

            TOTAL IN =         123.1019              TOTAL IN =           0.5000

          OUT:                                     OUT:
          ----                                     ----
        MASS STORAGE =           0.2827          MASS STORAGE =       1.9026E-11
    CNST H MASS FLUX =           0.0000      CNST H MASS FLUX =           0.0000
      WELL MASS FLUX =         122.8191        WELL MASS FLUX =           0.5000

           TOTAL OUT =         123.1019             TOTAL OUT =           0.5000

            IN - OUT =       1.6158E-11              IN - OUT =      -1.9026E-11

 PERCENT DISCREPANCY =           0.00     PERCENT DISCREPANCY =          -0.00






          TIME SUMMARY AT END OF TIME STEP         4 IN STRESS PERIOD         9
                    SECONDS     MINUTES      HOURS       DAYS        YEARS
                    -----------------------------------------------------------
   TIME STEP LENGTH 1.72542E+05  2875.7      47.928      1.9970     5.46754E-03
 STRESS PERIOD TIME 5.36000E+05  8933.3      148.89      6.2037     1.69848E-02
         TOTAL TIME 2.12720E+07 3.54533E+05  5908.9      246.20     0.67407    
1
 -------------------------------------------------------------------------------------
 
 SOLVING FOR HEAD 

 Outer-Iteration  Inner-Iteration  Backtracking  Number of        Incoming       Outgoing  Maximum HeadChange      Maximum Head Change
     Number           Count           Flag       Backtracks       Residual       Residual           Value              Location
        1                             0             0          0.406704E-01     0.406704E-01
        1                6                                                                       -0.117311                     1           GWF-node number
        1                6                                                                       -0.109937                     3           CLN-node number
        2                             0             0          0.175587E-14     0.175587E-14
        2                1                                                                        0.549231E-08               401           GWF-node number
        2                1                                                                        0.135902E-07                 3           CLN-node number
     2 CALLS TO SPARSE MATRIX SOLVER PACKAGE  IN FLOW TIME STEP       5 STRESS PERIOD       9

 TOTAL OF       2OUTER ITERATIONS
  MAXIMUM CHANGE FOR EACH ITERATION:
   MAX. CHANGE        NODE  MAX. CHANGE        NODE  MAX. CHANGE        NODE  MAX. CHANGE        NODE  MAX. CHANGE        NODE
 ------------------------------------------------------------------------------------------------------------------------------------
  -0.11731    ,          1  0.54923E-08,        401

  MAXIMUM CHANGE FOR CLN NODE AT EACH ITERATION:
   MAX. CHANGE    CLN-CELL  MAX. CHANGE    CLN-CELL  MAX. CHANGE    CLN-CELL  MAX. CHANGE    CLN-CELL  MAX. CHANGE    CLN-CELL
 ------------------------------------------------------------------------------------------------------------------------------------
  -0.10994    ,          3  0.13590E-07,          3

 HEAD/DRAWDOWN PRINTOUT FLAG = 1     TOTAL BUDGET PRINTOUT FLAG = 1
 CELL-BY-CELL FLOW TERM FLAG = 1
 CONCENTRATION PRINTOUT FLAG = 1

 OUTPUT FLAGS FOR ALL LAYERS ARE THE SAME:
   HEAD    DRAWDOWN  HEAD  DRAWDOWN    CONC    CONC
 PRINTOUT  PRINTOUT  SAVE    SAVE    PRINTOUT  SAVE
 ---------------------------------------------------
     0         0       1       1       0       1
 UBUDSVU SAVING "         STORAGE" ON UNIT  50 AT TIME STEP      5, STRESS PERIOD      9
 UBUDSV SAVING "     CLN STORAGE" ON UNIT 144 AT TIME STEP      5, STRESS PERIOD       9
 UBUDSVU SAVING "   CONSTANT HEAD" ON UNIT  50 AT TIME STEP      5, STRESS PERIOD      9
 UBUDSVU SAVING "   FLOW JA FACE " ON UNIT  50 AT TIME STEP      5, STRESS PERIOD      9
 UBUDSVU SAVING "             CLN" ON UNIT  50 AT TIME STEP      5, STRESS PERIOD      9
 UBUDSVU SAVING "  CLN CONST HEAD" ON UNIT 144 AT TIME STEP      5, STRESS PERIOD      9
 UBUDSVU SAVING "   FLOW CLN FACE" ON UNIT 144 AT TIME STEP      5, STRESS PERIOD      9
 UBUDSVU SAVING "             GWF" ON UNIT 144 AT TIME STEP      5, STRESS PERIOD      9
 UBUDSVU SAVING "           WELLS" ON UNIT  50 AT TIME STEP      5, STRESS PERIOD      9
 UBUDSVU SAVING "           WELLS" ON UNIT 144 AT TIME STEP      5, STRESS PERIOD      9

 HEAD WILL BE SAVED ON UNIT       30 AT END OF TIME STEP        5, STRESS PERIOD        9

 DRAWDOWN WILL BE SAVED ON UNIT   31 AT END OF TIME STEP   5, STRESS PERIOD    9

 CLN HEAD WILL BE SAVED ON UNIT   77 AT END OF TIME STEP   5, STRESS PERIOD    9
1
  VOLUMETRIC BUDGET FOR ENTIRE MODEL AT END OF TIME STEP       5 IN STRESS PERIOD       9
  ---------------------------------------------------------------------------------------

     CUMULATIVE VOLUMES      L**3       RATES FOR THIS TIME STEP      L**3/T
     ------------------                 ------------------------

           IN:                                      IN:
           ---                                      ---
             STORAGE =        1243.0006               STORAGE =           5.0000
         CLN STORAGE =           0.0000           CLN STORAGE =           0.0000
       CONSTANT HEAD =           0.0000         CONSTANT HEAD =           0.0000
      CLN CONST HEAD =           0.0000        CLN CONST HEAD =           0.0000
               WELLS =           0.0000                 WELLS =           0.0000

            TOTAL IN =        1243.0006              TOTAL IN =           5.0000

          OUT:                                     OUT:
          ----                                     ----
             STORAGE =           0.0000               STORAGE =           0.0000
         CLN STORAGE =           0.0000           CLN STORAGE =           0.0000
       CONSTANT HEAD =           0.0000         CONSTANT HEAD =           0.0000
      CLN CONST HEAD =           0.0000        CLN CONST HEAD =           0.0000
               WELLS =        1243.0006                 WELLS =           5.0000

           TOTAL OUT =        1243.0006             TOTAL OUT =           5.0000

            IN - OUT =       1.2561E-05              IN - OUT =       6.2363E-08

 PERCENT DISCREPANCY =           0.00     PERCENT DISCREPANCY =           0.00






          TIME SUMMARY AT END OF TIME STEP         5 IN STRESS PERIOD         9
                    SECONDS     MINUTES      HOURS       DAYS        YEARS
                    -----------------------------------------------------------
   TIME STEP LENGTH 2.07051E+05  3450.8      57.514      2.3964     6.56105E-03
 STRESS PERIOD TIME 7.43051E+05  12384.      206.40      8.6001     2.35459E-02
         TOTAL TIME 2.14790E+07 3.57984E+05  5966.4      248.60     0.68063    
1
 ------------------------------------------------------------------------------------------------------------
 
 SOLVING FOR TRANSPORT 

 ------------------------------------------------------------------------------------------------------------------------
     1 CALLS TO SPARSE MATRIX SOLVER PACKAGE IN TRANSPORT TIME STEP       5 STRESS PERIOD       9 SPECIES  1

 TOTAL OF       1OUTER ITERATIONS
  MAXIMUM CHANGE FOR EACH ITERATION:
   MAX. CHANGE        NODE  MAX. CHANGE        NODE  MAX. CHANGE        NODE  MAX. CHANGE        NODE  MAX. CHANGE        NODE
 ------------------------------------------------------------------------------------------------------------------------------------
  -0.14735E-11,        191

  MAXIMUM CHANGE FOR CLN NODE AT EACH ITERATION:
   MAX. CHANGE    CLN-CELL  MAX. CHANGE    CLN-CELL  MAX. CHANGE    CLN-CELL  MAX. CHANGE    CLN-CELL  MAX. CHANGE    CLN-CELL
 ------------------------------------------------------------------------------------------------------------------------------------
   0.63545E-09,          1
     TRANSPORT SOLUTION COMPLETE FOR COMPONENT SPECIES NUMBER    1
     ------------------------------------------------------------
 UBUDSVU SAVING "    MASS STORAGE" ON UNIT 145 AT TIME STEP      5, STRESS PERIOD      9
 UBUDSVU SAVING "CLN MASS STORAGE" ON UNIT 145 AT TIME STEP      5, STRESS PERIOD      9
 UBUDSVU SAVING "CNST H MASS FLUX" ON UNIT 145 AT TIME STEP      5, STRESS PERIOD      9
 UBUDSVU SAVING "  WELL MASS FLUX" ON UNIT 145 AT TIME STEP      5, STRESS PERIOD      9

 TRANSPORT SOLUTION COMPLETE FOR ALL SPECIES, SORTING OUTPUT FOR CONCENTRATIONS AND MASS BALANCE
 ----------------------------------------------------------------------------------------------------
     TRANSPORT OUTPUT FOR COMPONENT SPECIES NUMBER    1
     ------------------------------------------------------------

 CONC WILL BE SAVED ON UNIT  132 AT END OF TIME STEP        5, STRESS PERIOD        9

 CLN CONC WILL BE SAVED ON UNIT  188 AT END OF TIME STEP   5, STRESS PERIOD    9
1
  VOLUMETRIC BUDGET FOR ENTIRE MODEL AT END OF TIME STEP       5 IN STRESS PERIOD       9
  ---------------------------------------------------------------------------------------

     CUMULATIVE VOLUMES      L**3       RATES FOR THIS TIME STEP      L**3/T
     ------------------                 ------------------------

           IN:                                      IN:
           ---                                      ---
        MASS STORAGE =         124.3001          MASS STORAGE =           0.5000
    CNST H MASS FLUX =           0.0000      CNST H MASS FLUX =           0.0000
      WELL MASS FLUX =           0.0000        WELL MASS FLUX =           0.0000

            TOTAL IN =         124.3001              TOTAL IN =           0.5000

          OUT:                                     OUT:
          ----                                     ----
        MASS STORAGE =           0.2827          MASS STORAGE =       6.3926E-10
    CNST H MASS FLUX =           0.0000      CNST H MASS FLUX =           0.0000
      WELL MASS FLUX =         124.0173        WELL MASS FLUX =           0.5000

           TOTAL OUT =         124.3001             TOTAL OUT =           0.5000

            IN - OUT =       1.6215E-11              IN - OUT =      -6.3926E-10

 PERCENT DISCREPANCY =           0.00     PERCENT DISCREPANCY =          -0.00






          TIME SUMMARY AT END OF TIME STEP         5 IN STRESS PERIOD         9
                    SECONDS     MINUTES      HOURS       DAYS        YEARS
                    -----------------------------------------------------------
   TIME STEP LENGTH 2.07051E+05  3450.8      57.514      2.3964     6.56105E-03
 STRESS PERIOD TIME 7.43051E+05  12384.      206.40      8.6001     2.35459E-02
         TOTAL TIME 2.14790E+07 3.57984E+05  5966.4      248.60     0.68063    
1
 -------------------------------------------------------------------------------------
 
 SOLVING FOR HEAD 

 Outer-Iteration  Inner-Iteration  Backtracking  Number of        Incoming       Outgoing  Maximum HeadChange      Maximum Head Change
     Number           Count           Flag       Backtracks       Residual       Residual           Value              Location
        1                             0             0          0.406003E-01     0.406003E-01
        1                6                                                                       -0.140564                     1           GWF-node number
        1                6                                                                       -0.131745                     3           CLN-node number
        2                             0             0          0.638153E-14     0.638153E-14
        2                1                                                                       -0.339395E-07               190           GWF-node number
        2                1                                                                       -0.808857E-07                 3           CLN-node number
     2 CALLS TO SPARSE MATRIX SOLVER PACKAGE  IN FLOW TIME STEP       6 STRESS PERIOD       9

 TOTAL OF       2OUTER ITERATIONS
  MAXIMUM CHANGE FOR EACH ITERATION:
   MAX. CHANGE        NODE  MAX. CHANGE        NODE  MAX. CHANGE        NODE  MAX. CHANGE        NODE  MAX. CHANGE        NODE
 ------------------------------------------------------------------------------------------------------------------------------------
  -0.14056    ,          1 -0.33940E-07,        190

  MAXIMUM CHANGE FOR CLN NODE AT EACH ITERATION:
   MAX. CHANGE    CLN-CELL  MAX. CHANGE    CLN-CELL  MAX. CHANGE    CLN-CELL  MAX. CHANGE    CLN-CELL  MAX. CHANGE    CLN-CELL
 ------------------------------------------------------------------------------------------------------------------------------------
  -0.13174    ,          3 -0.80886E-07,          3

 HEAD/DRAWDOWN PRINTOUT FLAG = 1     TOTAL BUDGET PRINTOUT FLAG = 1
 CELL-BY-CELL FLOW TERM FLAG = 1
 CONCENTRATION PRINTOUT FLAG = 1

 OUTPUT FLAGS FOR ALL LAYERS ARE THE SAME:
   HEAD    DRAWDOWN  HEAD  DRAWDOWN    CONC    CONC
 PRINTOUT  PRINTOUT  SAVE    SAVE    PRINTOUT  SAVE
 ---------------------------------------------------
     0         0       1       1       0       1
 UBUDSVU SAVING "         STORAGE" ON UNIT  50 AT TIME STEP      6, STRESS PERIOD      9
 UBUDSV SAVING "     CLN STORAGE" ON UNIT 144 AT TIME STEP      6, STRESS PERIOD       9
 UBUDSVU SAVING "   CONSTANT HEAD" ON UNIT  50 AT TIME STEP      6, STRESS PERIOD      9
 UBUDSVU SAVING "   FLOW JA FACE " ON UNIT  50 AT TIME STEP      6, STRESS PERIOD      9
 UBUDSVU SAVING "             CLN" ON UNIT  50 AT TIME STEP      6, STRESS PERIOD      9
 UBUDSVU SAVING "  CLN CONST HEAD" ON UNIT 144 AT TIME STEP      6, STRESS PERIOD      9
 UBUDSVU SAVING "   FLOW CLN FACE" ON UNIT 144 AT TIME STEP      6, STRESS PERIOD      9
 UBUDSVU SAVING "             GWF" ON UNIT 144 AT TIME STEP      6, STRESS PERIOD      9
 UBUDSVU SAVING "           WELLS" ON UNIT  50 AT TIME STEP      6, STRESS PERIOD      9
 UBUDSVU SAVING "           WELLS" ON UNIT 144 AT TIME STEP      6, STRESS PERIOD      9

 HEAD WILL BE SAVED ON UNIT       30 AT END OF TIME STEP        6, STRESS PERIOD        9

 DRAWDOWN WILL BE SAVED ON UNIT   31 AT END OF TIME STEP   6, STRESS PERIOD    9

 CLN HEAD WILL BE SAVED ON UNIT   77 AT END OF TIME STEP   6, STRESS PERIOD    9
1
  VOLUMETRIC BUDGET FOR ENTIRE MODEL AT END OF TIME STEP       6 IN STRESS PERIOD       9
  ---------------------------------------------------------------------------------------

     CUMULATIVE VOLUMES      L**3       RATES FOR THIS TIME STEP      L**3/T
     ------------------                 ------------------------

           IN:                                      IN:
           ---                                      ---
             STORAGE =        1257.3791               STORAGE =           5.0000
         CLN STORAGE =           0.0000           CLN STORAGE =           0.0000
       CONSTANT HEAD =           0.0000         CONSTANT HEAD =           0.0000
      CLN CONST HEAD =           0.0000        CLN CONST HEAD =           0.0000
               WELLS =           0.0000                 WELLS =           0.0000

            TOTAL IN =        1257.3791              TOTAL IN =           5.0000

          OUT:                                     OUT:
          ----                                     ----
             STORAGE =           0.0000               STORAGE =           0.0000
         CLN STORAGE =           0.0000           CLN STORAGE =           0.0000
       CONSTANT HEAD =           0.0000         CONSTANT HEAD =           0.0000
      CLN CONST HEAD =           0.0000        CLN CONST HEAD =           0.0000
               WELLS =        1257.3791                 WELLS =           5.0000

           TOTAL OUT =        1257.3791             TOTAL OUT =           5.0000

            IN - OUT =       1.2663E-05              IN - OUT =       3.5618E-08

 PERCENT DISCREPANCY =           0.00     PERCENT DISCREPANCY =           0.00






          TIME SUMMARY AT END OF TIME STEP         6 IN STRESS PERIOD         9
                    SECONDS     MINUTES      HOURS       DAYS        YEARS
                    -----------------------------------------------------------
   TIME STEP LENGTH 2.48461E+05  4141.0      69.017      2.8757     7.87326E-03
 STRESS PERIOD TIME 9.91512E+05  16525.      275.42      11.476     3.14191E-02
         TOTAL TIME 2.17275E+07 3.62125E+05  6035.4      251.48     0.68850    
1
 ------------------------------------------------------------------------------------------------------------
 
 SOLVING FOR TRANSPORT 

 ------------------------------------------------------------------------------------------------------------------------
     1 CALLS TO SPARSE MATRIX SOLVER PACKAGE IN TRANSPORT TIME STEP       6 STRESS PERIOD       9 SPECIES  1

 TOTAL OF       1OUTER ITERATIONS
  MAXIMUM CHANGE FOR EACH ITERATION:
   MAX. CHANGE        NODE  MAX. CHANGE        NODE  MAX. CHANGE        NODE  MAX. CHANGE        NODE  MAX. CHANGE        NODE
 ------------------------------------------------------------------------------------------------------------------------------------
  -0.12645E-10,        191

  MAXIMUM CHANGE FOR CLN NODE AT EACH ITERATION:
   MAX. CHANGE    CLN-CELL  MAX. CHANGE    CLN-CELL  MAX. CHANGE    CLN-CELL  MAX. CHANGE    CLN-CELL  MAX. CHANGE    CLN-CELL
 ------------------------------------------------------------------------------------------------------------------------------------
   0.46158E-09,          1
     TRANSPORT SOLUTION COMPLETE FOR COMPONENT SPECIES NUMBER    1
     ------------------------------------------------------------
 UBUDSVU SAVING "    MASS STORAGE" ON UNIT 145 AT TIME STEP      6, STRESS PERIOD      9
 UBUDSVU SAVING "CLN MASS STORAGE" ON UNIT 145 AT TIME STEP      6, STRESS PERIOD      9
 UBUDSVU SAVING "CNST H MASS FLUX" ON UNIT 145 AT TIME STEP      6, STRESS PERIOD      9
 UBUDSVU SAVING "  WELL MASS FLUX" ON UNIT 145 AT TIME STEP      6, STRESS PERIOD      9

 TRANSPORT SOLUTION COMPLETE FOR ALL SPECIES, SORTING OUTPUT FOR CONCENTRATIONS AND MASS BALANCE
 ----------------------------------------------------------------------------------------------------
     TRANSPORT OUTPUT FOR COMPONENT SPECIES NUMBER    1
     ------------------------------------------------------------

 CONC WILL BE SAVED ON UNIT  132 AT END OF TIME STEP        6, STRESS PERIOD        9

 CLN CONC WILL BE SAVED ON UNIT  188 AT END OF TIME STEP   6, STRESS PERIOD    9
1
  VOLUMETRIC BUDGET FOR ENTIRE MODEL AT END OF TIME STEP       6 IN STRESS PERIOD       9
  ---------------------------------------------------------------------------------------

     CUMULATIVE VOLUMES      L**3       RATES FOR THIS TIME STEP      L**3/T
     ------------------                 ------------------------

           IN:                                      IN:
           ---                                      ---
        MASS STORAGE =         125.7379          MASS STORAGE =           0.5000
    CNST H MASS FLUX =           0.0000      CNST H MASS FLUX =           0.0000
      WELL MASS FLUX =           0.0000        WELL MASS FLUX =           0.0000

            TOTAL IN =         125.7379              TOTAL IN =           0.5000

          OUT:                                     OUT:
          ----                                     ----
        MASS STORAGE =           0.2827          MASS STORAGE =       2.2692E-10
    CNST H MASS FLUX =           0.0000      CNST H MASS FLUX =           0.0000
      WELL MASS FLUX =         125.4552        WELL MASS FLUX =           0.5000

           TOTAL OUT =         125.7379             TOTAL OUT =           0.5000

            IN - OUT =       1.0971E-11              IN - OUT =      -2.2692E-10

 PERCENT DISCREPANCY =           0.00     PERCENT DISCREPANCY =          -0.00






          TIME SUMMARY AT END OF TIME STEP         6 IN STRESS PERIOD         9
                    SECONDS     MINUTES      HOURS       DAYS        YEARS
                    -----------------------------------------------------------
   TIME STEP LENGTH 2.48461E+05  4141.0      69.017      2.8757     7.87326E-03
 STRESS PERIOD TIME 9.91512E+05  16525.      275.42      11.476     3.14191E-02
         TOTAL TIME 2.17275E+07 3.62125E+05  6035.4      251.48     0.68850    
1
 -------------------------------------------------------------------------------------
 
 SOLVING FOR HEAD 

 Outer-Iteration  Inner-Iteration  Backtracking  Number of        Incoming       Outgoing  Maximum HeadChange      Maximum Head Change
     Number           Count           Flag       Backtracks       Residual       Residual           Value              Location
        1                             0             0          0.405169E-01     0.405169E-01
        1                6                                                                       -0.168378                     1           GWF-node number
        1                6                                                                       -0.157838                     3           CLN-node number
        2                             0             0          0.658475E-14     0.658475E-14
        2                1                                                                        0.582579E-07               190           GWF-node number
        2                1                                                                        0.160452E-06                 3           CLN-node number
     2 CALLS TO SPARSE MATRIX SOLVER PACKAGE  IN FLOW TIME STEP       7 STRESS PERIOD       9

 TOTAL OF       2OUTER ITERATIONS
  MAXIMUM CHANGE FOR EACH ITERATION:
   MAX. CHANGE        NODE  MAX. CHANGE        NODE  MAX. CHANGE        NODE  MAX. CHANGE        NODE  MAX. CHANGE        NODE
 ------------------------------------------------------------------------------------------------------------------------------------
  -0.16838    ,          1  0.58258E-07,        190

  MAXIMUM CHANGE FOR CLN NODE AT EACH ITERATION:
   MAX. CHANGE    CLN-CELL  MAX. CHANGE    CLN-CELL  MAX. CHANGE    CLN-CELL  MAX. CHANGE    CLN-CELL  MAX. CHANGE    CLN-CELL
 ------------------------------------------------------------------------------------------------------------------------------------
  -0.15784    ,          3  0.16045E-06,          3

 HEAD/DRAWDOWN PRINTOUT FLAG = 1     TOTAL BUDGET PRINTOUT FLAG = 1
 CELL-BY-CELL FLOW TERM FLAG = 1
 CONCENTRATION PRINTOUT FLAG = 1

 OUTPUT FLAGS FOR ALL LAYERS ARE THE SAME:
   HEAD    DRAWDOWN  HEAD  DRAWDOWN    CONC    CONC
 PRINTOUT  PRINTOUT  SAVE    SAVE    PRINTOUT  SAVE
 ---------------------------------------------------
     0         0       1       1       0       1
 UBUDSVU SAVING "         STORAGE" ON UNIT  50 AT TIME STEP      7, STRESS PERIOD      9
 UBUDSV SAVING "     CLN STORAGE" ON UNIT 144 AT TIME STEP      7, STRESS PERIOD       9
 UBUDSVU SAVING "   CONSTANT HEAD" ON UNIT  50 AT TIME STEP      7, STRESS PERIOD      9
 UBUDSVU SAVING "   FLOW JA FACE " ON UNIT  50 AT TIME STEP      7, STRESS PERIOD      9
 UBUDSVU SAVING "             CLN" ON UNIT  50 AT TIME STEP      7, STRESS PERIOD      9
 UBUDSVU SAVING "  CLN CONST HEAD" ON UNIT 144 AT TIME STEP      7, STRESS PERIOD      9
 UBUDSVU SAVING "   FLOW CLN FACE" ON UNIT 144 AT TIME STEP      7, STRESS PERIOD      9
 UBUDSVU SAVING "             GWF" ON UNIT 144 AT TIME STEP      7, STRESS PERIOD      9
 UBUDSVU SAVING "           WELLS" ON UNIT  50 AT TIME STEP      7, STRESS PERIOD      9
 UBUDSVU SAVING "           WELLS" ON UNIT 144 AT TIME STEP      7, STRESS PERIOD      9

 HEAD WILL BE SAVED ON UNIT       30 AT END OF TIME STEP        7, STRESS PERIOD        9

 DRAWDOWN WILL BE SAVED ON UNIT   31 AT END OF TIME STEP   7, STRESS PERIOD    9

 CLN HEAD WILL BE SAVED ON UNIT   77 AT END OF TIME STEP   7, STRESS PERIOD    9
1
  VOLUMETRIC BUDGET FOR ENTIRE MODEL AT END OF TIME STEP       7 IN STRESS PERIOD       9
  ---------------------------------------------------------------------------------------

     CUMULATIVE VOLUMES      L**3       RATES FOR THIS TIME STEP      L**3/T
     ------------------                 ------------------------

           IN:                                      IN:
           ---                                      ---
             STORAGE =        1274.6334               STORAGE =           5.0000
         CLN STORAGE =           0.0000           CLN STORAGE =           0.0000
       CONSTANT HEAD =           0.0000         CONSTANT HEAD =           0.0000
      CLN CONST HEAD =           0.0000        CLN CONST HEAD =           0.0000
               WELLS =           0.0000                 WELLS =           0.0000

            TOTAL IN =        1274.6334              TOTAL IN =           5.0000

          OUT:                                     OUT:
          ----                                     ----
             STORAGE =           0.0000               STORAGE =           0.0000
         CLN STORAGE =           0.0000           CLN STORAGE =           0.0000
       CONSTANT HEAD =           0.0000         CONSTANT HEAD =           0.0000
      CLN CONST HEAD =           0.0000        CLN CONST HEAD =           0.0000
               WELLS =        1274.6334                 WELLS =           5.0000

           TOTAL OUT =        1274.6334             TOTAL OUT =           5.0000

            IN - OUT =       1.2798E-05              IN - OUT =       3.9158E-08

 PERCENT DISCREPANCY =           0.00     PERCENT DISCREPANCY =           0.00






          TIME SUMMARY AT END OF TIME STEP         7 IN STRESS PERIOD         9
                    SECONDS     MINUTES      HOURS       DAYS        YEARS
                    -----------------------------------------------------------
   TIME STEP LENGTH 2.98153E+05  4969.2      82.820      3.4509     9.44791E-03
 STRESS PERIOD TIME 1.28967E+06  21494.      358.24      14.927     4.08670E-02
         TOTAL TIME 2.20257E+07 3.67094E+05  6118.2      254.93     0.69795    
1
 ------------------------------------------------------------------------------------------------------------
 
 SOLVING FOR TRANSPORT 

 ------------------------------------------------------------------------------------------------------------------------
     1 CALLS TO SPARSE MATRIX SOLVER PACKAGE IN TRANSPORT TIME STEP       7 STRESS PERIOD       9 SPECIES  1

 TOTAL OF       1OUTER ITERATIONS
  MAXIMUM CHANGE FOR EACH ITERATION:
   MAX. CHANGE        NODE  MAX. CHANGE        NODE  MAX. CHANGE        NODE  MAX. CHANGE        NODE  MAX. CHANGE        NODE
 ------------------------------------------------------------------------------------------------------------------------------------
   0.18759E-10,        191

  MAXIMUM CHANGE FOR CLN NODE AT EACH ITERATION:
   MAX. CHANGE    CLN-CELL  MAX. CHANGE    CLN-CELL  MAX. CHANGE    CLN-CELL  MAX. CHANGE    CLN-CELL  MAX. CHANGE    CLN-CELL
 ------------------------------------------------------------------------------------------------------------------------------------
  -0.94244E-09,          3
     TRANSPORT SOLUTION COMPLETE FOR COMPONENT SPECIES NUMBER    1
     ------------------------------------------------------------
 UBUDSVU SAVING "    MASS STORAGE" ON UNIT 145 AT TIME STEP      7, STRESS PERIOD      9
 UBUDSVU SAVING "CLN MASS STORAGE" ON UNIT 145 AT TIME STEP      7, STRESS PERIOD      9
 UBUDSVU SAVING "CNST H MASS FLUX" ON UNIT 145 AT TIME STEP      7, STRESS PERIOD      9
 UBUDSVU SAVING "  WELL MASS FLUX" ON UNIT 145 AT TIME STEP      7, STRESS PERIOD      9

 TRANSPORT SOLUTION COMPLETE FOR ALL SPECIES, SORTING OUTPUT FOR CONCENTRATIONS AND MASS BALANCE
 ----------------------------------------------------------------------------------------------------
     TRANSPORT OUTPUT FOR COMPONENT SPECIES NUMBER    1
     ------------------------------------------------------------

 CONC WILL BE SAVED ON UNIT  132 AT END OF TIME STEP        7, STRESS PERIOD        9

 CLN CONC WILL BE SAVED ON UNIT  188 AT END OF TIME STEP   7, STRESS PERIOD    9
1
  VOLUMETRIC BUDGET FOR ENTIRE MODEL AT END OF TIME STEP       7 IN STRESS PERIOD       9
  ---------------------------------------------------------------------------------------

     CUMULATIVE VOLUMES      L**3       RATES FOR THIS TIME STEP      L**3/T
     ------------------                 ------------------------

           IN:                                      IN:
           ---                                      ---
        MASS STORAGE =         127.4633          MASS STORAGE =           0.5000
    CNST H MASS FLUX =           0.0000      CNST H MASS FLUX =           0.0000
      WELL MASS FLUX =           0.0000        WELL MASS FLUX =           0.0000

            TOTAL IN =         127.4633              TOTAL IN =           0.5000

          OUT:                                     OUT:
          ----                                     ----
        MASS STORAGE =           0.2827          MASS STORAGE =           0.0000
    CNST H MASS FLUX =           0.0000      CNST H MASS FLUX =           0.0000
      WELL MASS FLUX =         127.1806        WELL MASS FLUX =           0.5000

           TOTAL OUT =         127.4633             TOTAL OUT =           0.5000

            IN - OUT =       1.7394E-11              IN - OUT =           0.0000

 PERCENT DISCREPANCY =           0.00     PERCENT DISCREPANCY =           0.00






          TIME SUMMARY AT END OF TIME STEP         7 IN STRESS PERIOD         9
                    SECONDS     MINUTES      HOURS       DAYS        YEARS
                    -----------------------------------------------------------
   TIME STEP LENGTH 2.98153E+05  4969.2      82.820      3.4509     9.44791E-03
 STRESS PERIOD TIME 1.28967E+06  21494.      358.24      14.927     4.08670E-02
         TOTAL TIME 2.20257E+07 3.67094E+05  6118.2      254.93     0.69795    
1
 -------------------------------------------------------------------------------------
 
 SOLVING FOR HEAD 

 Outer-Iteration  Inner-Iteration  Backtracking  Number of        Incoming       Outgoing  Maximum HeadChange      Maximum Head Change
     Number           Count           Flag       Backtracks       Residual       Residual           Value              Location
        1                             0             0          0.404177E-01     0.404177E-01
        1                6                                                                       -0.201627                     1           GWF-node number
        1                6                                                                       -0.189041                     3           CLN-node number
        2                             0             0          0.240910E-13     0.240910E-13
        2                1                                                                        0.162730E-06               401           GWF-node number
        2                1                                                                        0.302020E-06                 3           CLN-node number
     2 CALLS TO SPARSE MATRIX SOLVER PACKAGE  IN FLOW TIME STEP       8 STRESS PERIOD       9

 TOTAL OF       2OUTER ITERATIONS
  MAXIMUM CHANGE FOR EACH ITERATION:
   MAX. CHANGE        NODE  MAX. CHANGE        NODE  MAX. CHANGE        NODE  MAX. CHANGE        NODE  MAX. CHANGE        NODE
 ------------------------------------------------------------------------------------------------------------------------------------
  -0.20163    ,          1  0.16273E-06,        401

  MAXIMUM CHANGE FOR CLN NODE AT EACH ITERATION:
   MAX. CHANGE    CLN-CELL  MAX. CHANGE    CLN-CELL  MAX. CHANGE    CLN-CELL  MAX. CHANGE    CLN-CELL  MAX. CHANGE    CLN-CELL
 ------------------------------------------------------------------------------------------------------------------------------------
  -0.18904    ,          3  0.30202E-06,          3

 HEAD/DRAWDOWN PRINTOUT FLAG = 1     TOTAL BUDGET PRINTOUT FLAG = 1
 CELL-BY-CELL FLOW TERM FLAG = 1
 CONCENTRATION PRINTOUT FLAG = 1

 OUTPUT FLAGS FOR ALL LAYERS ARE THE SAME:
   HEAD    DRAWDOWN  HEAD  DRAWDOWN    CONC    CONC
 PRINTOUT  PRINTOUT  SAVE    SAVE    PRINTOUT  SAVE
 ---------------------------------------------------
     0         0       1       1       0       1
 UBUDSVU SAVING "         STORAGE" ON UNIT  50 AT TIME STEP      8, STRESS PERIOD      9
 UBUDSV SAVING "     CLN STORAGE" ON UNIT 144 AT TIME STEP      8, STRESS PERIOD       9
 UBUDSVU SAVING "   CONSTANT HEAD" ON UNIT  50 AT TIME STEP      8, STRESS PERIOD      9
 UBUDSVU SAVING "   FLOW JA FACE " ON UNIT  50 AT TIME STEP      8, STRESS PERIOD      9
 UBUDSVU SAVING "             CLN" ON UNIT  50 AT TIME STEP      8, STRESS PERIOD      9
 UBUDSVU SAVING "  CLN CONST HEAD" ON UNIT 144 AT TIME STEP      8, STRESS PERIOD      9
 UBUDSVU SAVING "   FLOW CLN FACE" ON UNIT 144 AT TIME STEP      8, STRESS PERIOD      9
 UBUDSVU SAVING "             GWF" ON UNIT 144 AT TIME STEP      8, STRESS PERIOD      9
 UBUDSVU SAVING "           WELLS" ON UNIT  50 AT TIME STEP      8, STRESS PERIOD      9
 UBUDSVU SAVING "           WELLS" ON UNIT 144 AT TIME STEP      8, STRESS PERIOD      9

 HEAD WILL BE SAVED ON UNIT       30 AT END OF TIME STEP        8, STRESS PERIOD        9

 DRAWDOWN WILL BE SAVED ON UNIT   31 AT END OF TIME STEP   8, STRESS PERIOD    9

 CLN HEAD WILL BE SAVED ON UNIT   77 AT END OF TIME STEP   8, STRESS PERIOD    9
1
  VOLUMETRIC BUDGET FOR ENTIRE MODEL AT END OF TIME STEP       8 IN STRESS PERIOD       9
  ---------------------------------------------------------------------------------------

     CUMULATIVE VOLUMES      L**3       RATES FOR THIS TIME STEP      L**3/T
     ------------------                 ------------------------

           IN:                                      IN:
           ---                                      ---
             STORAGE =        1295.3385               STORAGE =           5.0000
         CLN STORAGE =           0.0000           CLN STORAGE =           0.0000
       CONSTANT HEAD =           0.0000         CONSTANT HEAD =           0.0000
      CLN CONST HEAD =           0.0000        CLN CONST HEAD =           0.0000
               WELLS =           0.0000                 WELLS =           0.0000

            TOTAL IN =        1295.3385              TOTAL IN =           5.0000

          OUT:                                     OUT:
          ----                                     ----
             STORAGE =           0.0000               STORAGE =           0.0000
         CLN STORAGE =           0.0000           CLN STORAGE =           0.0000
       CONSTANT HEAD =           0.0000         CONSTANT HEAD =           0.0000
      CLN CONST HEAD =           0.0000        CLN CONST HEAD =           0.0000
               WELLS =        1295.3385                 WELLS =           5.0000

           TOTAL OUT =        1295.3385             TOTAL OUT =           5.0000

            IN - OUT =       1.3064E-05              IN - OUT =       6.4184E-08

 PERCENT DISCREPANCY =           0.00     PERCENT DISCREPANCY =           0.00






          TIME SUMMARY AT END OF TIME STEP         8 IN STRESS PERIOD         9
                    SECONDS     MINUTES      HOURS       DAYS        YEARS
                    -----------------------------------------------------------
   TIME STEP LENGTH 3.57784E+05  5963.1      99.384      4.1410     1.13375E-02
 STRESS PERIOD TIME 1.64745E+06  27457.      457.62      19.068     5.22045E-02
         TOTAL TIME 2.23834E+07 3.73057E+05  6217.6      259.07     0.70929    
1
 ------------------------------------------------------------------------------------------------------------
 
 SOLVING FOR TRANSPORT 

 ------------------------------------------------------------------------------------------------------------------------
     1 CALLS TO SPARSE MATRIX SOLVER PACKAGE IN TRANSPORT TIME STEP       8 STRESS PERIOD       9 SPECIES  1

 TOTAL OF       1OUTER ITERATIONS
  MAXIMUM CHANGE FOR EACH ITERATION:
   MAX. CHANGE        NODE  MAX. CHANGE        NODE  MAX. CHANGE        NODE  MAX. CHANGE        NODE  MAX. CHANGE        NODE
 ------------------------------------------------------------------------------------------------------------------------------------
   0.46253E-10,        191

  MAXIMUM CHANGE FOR CLN NODE AT EACH ITERATION:
   MAX. CHANGE    CLN-CELL  MAX. CHANGE    CLN-CELL  MAX. CHANGE    CLN-CELL  MAX. CHANGE    CLN-CELL  MAX. CHANGE    CLN-CELL
 ------------------------------------------------------------------------------------------------------------------------------------
  -0.45457E-09,          2
     TRANSPORT SOLUTION COMPLETE FOR COMPONENT SPECIES NUMBER    1
     ------------------------------------------------------------
 UBUDSVU SAVING "    MASS STORAGE" ON UNIT 145 AT TIME STEP      8, STRESS PERIOD      9
 UBUDSVU SAVING "CLN MASS STORAGE" ON UNIT 145 AT TIME STEP      8, STRESS PERIOD      9
 UBUDSVU SAVING "CNST H MASS FLUX" ON UNIT 145 AT TIME STEP      8, STRESS PERIOD      9
 UBUDSVU SAVING "  WELL MASS FLUX" ON UNIT 145 AT TIME STEP      8, STRESS PERIOD      9

 TRANSPORT SOLUTION COMPLETE FOR ALL SPECIES, SORTING OUTPUT FOR CONCENTRATIONS AND MASS BALANCE
 ----------------------------------------------------------------------------------------------------
     TRANSPORT OUTPUT FOR COMPONENT SPECIES NUMBER    1
     ------------------------------------------------------------

 CONC WILL BE SAVED ON UNIT  132 AT END OF TIME STEP        8, STRESS PERIOD        9

 CLN CONC WILL BE SAVED ON UNIT  188 AT END OF TIME STEP   8, STRESS PERIOD    9
1
  VOLUMETRIC BUDGET FOR ENTIRE MODEL AT END OF TIME STEP       8 IN STRESS PERIOD       9
  ---------------------------------------------------------------------------------------

     CUMULATIVE VOLUMES      L**3       RATES FOR THIS TIME STEP      L**3/T
     ------------------                 ------------------------

           IN:                                      IN:
           ---                                      ---
        MASS STORAGE =         129.5339          MASS STORAGE =           0.5000
    CNST H MASS FLUX =           0.0000      CNST H MASS FLUX =           0.0000
      WELL MASS FLUX =           0.0000        WELL MASS FLUX =           0.0000

            TOTAL IN =         129.5339              TOTAL IN =           0.5000

          OUT:                                     OUT:
          ----                                     ----
        MASS STORAGE =           0.2827          MASS STORAGE =           0.0000
    CNST H MASS FLUX =           0.0000      CNST H MASS FLUX =           0.0000
      WELL MASS FLUX =         129.2511        WELL MASS FLUX =           0.5000

           TOTAL OUT =         129.5339             TOTAL OUT =           0.5000

            IN - OUT =       5.0477E-11              IN - OUT =           0.0000

 PERCENT DISCREPANCY =           0.00     PERCENT DISCREPANCY =           0.00






          TIME SUMMARY AT END OF TIME STEP         8 IN STRESS PERIOD         9
                    SECONDS     MINUTES      HOURS       DAYS        YEARS
                    -----------------------------------------------------------
   TIME STEP LENGTH 3.57784E+05  5963.1      99.384      4.1410     1.13375E-02
 STRESS PERIOD TIME 1.64745E+06  27457.      457.62      19.068     5.22045E-02
         TOTAL TIME 2.23834E+07 3.73057E+05  6217.6      259.07     0.70929    
1
 -------------------------------------------------------------------------------------
 
 SOLVING FOR HEAD 

 Outer-Iteration  Inner-Iteration  Backtracking  Number of        Incoming       Outgoing  Maximum HeadChange      Maximum Head Change
     Number           Count           Flag       Backtracks       Residual       Residual           Value              Location
        1                             0             0          0.403000E-01     0.403000E-01
        1                6                                                                       -0.241362                    20           GWF-node number
        1                6                                                                       -0.226329                     1           CLN-node number
        2                             0             0          0.768270E-13     0.768270E-13
        2                1                                                                        0.461435E-06               401           GWF-node number
        2                1                                                                        0.922117E-07                 3           CLN-node number
     2 CALLS TO SPARSE MATRIX SOLVER PACKAGE  IN FLOW TIME STEP       9 STRESS PERIOD       9

 TOTAL OF       2OUTER ITERATIONS
  MAXIMUM CHANGE FOR EACH ITERATION:
   MAX. CHANGE        NODE  MAX. CHANGE        NODE  MAX. CHANGE        NODE  MAX. CHANGE        NODE  MAX. CHANGE        NODE
 ------------------------------------------------------------------------------------------------------------------------------------
  -0.24136    ,         20  0.46144E-06,        401

  MAXIMUM CHANGE FOR CLN NODE AT EACH ITERATION:
   MAX. CHANGE    CLN-CELL  MAX. CHANGE    CLN-CELL  MAX. CHANGE    CLN-CELL  MAX. CHANGE    CLN-CELL  MAX. CHANGE    CLN-CELL
 ------------------------------------------------------------------------------------------------------------------------------------
  -0.22633    ,          1  0.92212E-07,          3

 HEAD/DRAWDOWN PRINTOUT FLAG = 1     TOTAL BUDGET PRINTOUT FLAG = 1
 CELL-BY-CELL FLOW TERM FLAG = 1
 CONCENTRATION PRINTOUT FLAG = 1

 OUTPUT FLAGS FOR ALL LAYERS ARE THE SAME:
   HEAD    DRAWDOWN  HEAD  DRAWDOWN    CONC    CONC
 PRINTOUT  PRINTOUT  SAVE    SAVE    PRINTOUT  SAVE
 ---------------------------------------------------
     0         0       1       1       0       1
 UBUDSVU SAVING "         STORAGE" ON UNIT  50 AT TIME STEP      9, STRESS PERIOD      9
 UBUDSV SAVING "     CLN STORAGE" ON UNIT 144 AT TIME STEP      9, STRESS PERIOD       9
 UBUDSVU SAVING "   CONSTANT HEAD" ON UNIT  50 AT TIME STEP      9, STRESS PERIOD      9
 UBUDSVU SAVING "   FLOW JA FACE " ON UNIT  50 AT TIME STEP      9, STRESS PERIOD      9
 UBUDSVU SAVING "             CLN" ON UNIT  50 AT TIME STEP      9, STRESS PERIOD      9
 UBUDSVU SAVING "  CLN CONST HEAD" ON UNIT 144 AT TIME STEP      9, STRESS PERIOD      9
 UBUDSVU SAVING "   FLOW CLN FACE" ON UNIT 144 AT TIME STEP      9, STRESS PERIOD      9
 UBUDSVU SAVING "             GWF" ON UNIT 144 AT TIME STEP      9, STRESS PERIOD      9
 UBUDSVU SAVING "           WELLS" ON UNIT  50 AT TIME STEP      9, STRESS PERIOD      9
 UBUDSVU SAVING "           WELLS" ON UNIT 144 AT TIME STEP      9, STRESS PERIOD      9

 HEAD WILL BE SAVED ON UNIT       30 AT END OF TIME STEP        9, STRESS PERIOD        9

 DRAWDOWN WILL BE SAVED ON UNIT   31 AT END OF TIME STEP   9, STRESS PERIOD    9

 CLN HEAD WILL BE SAVED ON UNIT   77 AT END OF TIME STEP   9, STRESS PERIOD    9
1
  VOLUMETRIC BUDGET FOR ENTIRE MODEL AT END OF TIME STEP       9 IN STRESS PERIOD       9
  ---------------------------------------------------------------------------------------

     CUMULATIVE VOLUMES      L**3       RATES FOR THIS TIME STEP      L**3/T
     ------------------                 ------------------------

           IN:                                      IN:
           ---                                      ---
             STORAGE =        1320.1846               STORAGE =           5.0000
         CLN STORAGE =           0.0000           CLN STORAGE =           0.0000
       CONSTANT HEAD =           0.0000         CONSTANT HEAD =           0.0000
      CLN CONST HEAD =           0.0000        CLN CONST HEAD =           0.0000
               WELLS =           0.0000                 WELLS =           0.0000

            TOTAL IN =        1320.1846              TOTAL IN =           5.0000

          OUT:                                     OUT:
          ----                                     ----
             STORAGE =           0.0000               STORAGE =           0.0000
         CLN STORAGE =           0.0000           CLN STORAGE =           0.0000
       CONSTANT HEAD =           0.0000         CONSTANT HEAD =           0.0000
      CLN CONST HEAD =           0.0000        CLN CONST HEAD =           0.0000
               WELLS =        1320.1846                 WELLS =           5.0000

           TOTAL OUT =        1320.1846             TOTAL OUT =           5.0000

            IN - OUT =       1.3169E-05              IN - OUT =       2.1108E-08

 PERCENT DISCREPANCY =           0.00     PERCENT DISCREPANCY =           0.00






          TIME SUMMARY AT END OF TIME STEP         9 IN STRESS PERIOD         9
                    SECONDS     MINUTES      HOURS       DAYS        YEARS
                    -----------------------------------------------------------
   TIME STEP LENGTH 4.29341E+05  7155.7      119.26      4.9692     1.36050E-02
 STRESS PERIOD TIME 2.07679E+06  34613.      576.89      24.037     6.58095E-02
         TOTAL TIME 2.28128E+07 3.80213E+05  6336.9      264.04     0.72289    
1
 ------------------------------------------------------------------------------------------------------------
 
 SOLVING FOR TRANSPORT 

 ------------------------------------------------------------------------------------------------------------------------
     1 CALLS TO SPARSE MATRIX SOLVER PACKAGE IN TRANSPORT TIME STEP       9 STRESS PERIOD       9 SPECIES  1

 TOTAL OF       1OUTER ITERATIONS
  MAXIMUM CHANGE FOR EACH ITERATION:
   MAX. CHANGE        NODE  MAX. CHANGE        NODE  MAX. CHANGE        NODE  MAX. CHANGE        NODE  MAX. CHANGE        NODE
 ------------------------------------------------------------------------------------------------------------------------------------
   0.96484E-11,        191

  MAXIMUM CHANGE FOR CLN NODE AT EACH ITERATION:
   MAX. CHANGE    CLN-CELL  MAX. CHANGE    CLN-CELL  MAX. CHANGE    CLN-CELL  MAX. CHANGE    CLN-CELL  MAX. CHANGE    CLN-CELL
 ------------------------------------------------------------------------------------------------------------------------------------
   0.19681E-08,          2
     TRANSPORT SOLUTION COMPLETE FOR COMPONENT SPECIES NUMBER    1
     ------------------------------------------------------------
 UBUDSVU SAVING "    MASS STORAGE" ON UNIT 145 AT TIME STEP      9, STRESS PERIOD      9
 UBUDSVU SAVING "CLN MASS STORAGE" ON UNIT 145 AT TIME STEP      9, STRESS PERIOD      9
 UBUDSVU SAVING "CNST H MASS FLUX" ON UNIT 145 AT TIME STEP      9, STRESS PERIOD      9
 UBUDSVU SAVING "  WELL MASS FLUX" ON UNIT 145 AT TIME STEP      9, STRESS PERIOD      9

 TRANSPORT SOLUTION COMPLETE FOR ALL SPECIES, SORTING OUTPUT FOR CONCENTRATIONS AND MASS BALANCE
 ----------------------------------------------------------------------------------------------------
     TRANSPORT OUTPUT FOR COMPONENT SPECIES NUMBER    1
     ------------------------------------------------------------

 CONC WILL BE SAVED ON UNIT  132 AT END OF TIME STEP        9, STRESS PERIOD        9

 CLN CONC WILL BE SAVED ON UNIT  188 AT END OF TIME STEP   9, STRESS PERIOD    9
1
  VOLUMETRIC BUDGET FOR ENTIRE MODEL AT END OF TIME STEP       9 IN STRESS PERIOD       9
  ---------------------------------------------------------------------------------------

     CUMULATIVE VOLUMES      L**3       RATES FOR THIS TIME STEP      L**3/T
     ------------------                 ------------------------

           IN:                                      IN:
           ---                                      ---
        MASS STORAGE =         132.0185          MASS STORAGE =           0.5000
    CNST H MASS FLUX =           0.0000      CNST H MASS FLUX =           0.0000
      WELL MASS FLUX =           0.0000        WELL MASS FLUX =           0.0000

            TOTAL IN =         132.0185              TOTAL IN =           0.5000

          OUT:                                     OUT:
          ----                                     ----
        MASS STORAGE =           0.2827          MASS STORAGE =       4.0230E-10
    CNST H MASS FLUX =           0.0000      CNST H MASS FLUX =           0.0000
      WELL MASS FLUX =         131.7357        WELL MASS FLUX =           0.5000

           TOTAL OUT =         132.0185             TOTAL OUT =           0.5000

            IN - OUT =       6.0226E-11              IN - OUT =      -4.0230E-10

 PERCENT DISCREPANCY =           0.00     PERCENT DISCREPANCY =          -0.00






          TIME SUMMARY AT END OF TIME STEP         9 IN STRESS PERIOD         9
                    SECONDS     MINUTES      HOURS       DAYS        YEARS
                    -----------------------------------------------------------
   TIME STEP LENGTH 4.29341E+05  7155.7      119.26      4.9692     1.36050E-02
 STRESS PERIOD TIME 2.07679E+06  34613.      576.89      24.037     6.58095E-02
         TOTAL TIME 2.28128E+07 3.80213E+05  6336.9      264.04     0.72289    
1
 -------------------------------------------------------------------------------------
 
 SOLVING FOR HEAD 

 Outer-Iteration  Inner-Iteration  Backtracking  Number of        Incoming       Outgoing  Maximum HeadChange      Maximum Head Change
     Number           Count           Flag       Backtracks       Residual       Residual           Value              Location
        1                             0             0          0.401606E-01     0.401606E-01
        1                7                                                                       -0.288808                   400           GWF-node number
        1                7                                                                       -0.270854                     3           CLN-node number
        2                             0             0          0.535831E-14     0.535831E-14
        2                1                                                                       -0.591607E-07               417           GWF-node number
        2                1                                                                       -0.157040E-06                 2           CLN-node number
     2 CALLS TO SPARSE MATRIX SOLVER PACKAGE  IN FLOW TIME STEP      10 STRESS PERIOD       9

 TOTAL OF       2OUTER ITERATIONS
  MAXIMUM CHANGE FOR EACH ITERATION:
   MAX. CHANGE        NODE  MAX. CHANGE        NODE  MAX. CHANGE        NODE  MAX. CHANGE        NODE  MAX. CHANGE        NODE
 ------------------------------------------------------------------------------------------------------------------------------------
  -0.28881    ,        400 -0.59161E-07,        417

  MAXIMUM CHANGE FOR CLN NODE AT EACH ITERATION:
   MAX. CHANGE    CLN-CELL  MAX. CHANGE    CLN-CELL  MAX. CHANGE    CLN-CELL  MAX. CHANGE    CLN-CELL  MAX. CHANGE    CLN-CELL
 ------------------------------------------------------------------------------------------------------------------------------------
  -0.27085    ,          3 -0.15704E-06,          2

 HEAD/DRAWDOWN PRINTOUT FLAG = 1     TOTAL BUDGET PRINTOUT FLAG = 1
 CELL-BY-CELL FLOW TERM FLAG = 1
 CONCENTRATION PRINTOUT FLAG = 1

 OUTPUT FLAGS FOR ALL LAYERS ARE THE SAME:
   HEAD    DRAWDOWN  HEAD  DRAWDOWN    CONC    CONC
 PRINTOUT  PRINTOUT  SAVE    SAVE    PRINTOUT  SAVE
 ---------------------------------------------------
     0         0       1       1       0       1
 UBUDSVU SAVING "         STORAGE" ON UNIT  50 AT TIME STEP     10, STRESS PERIOD      9
 UBUDSV SAVING "     CLN STORAGE" ON UNIT 144 AT TIME STEP     10, STRESS PERIOD       9
 UBUDSVU SAVING "   CONSTANT HEAD" ON UNIT  50 AT TIME STEP     10, STRESS PERIOD      9
 UBUDSVU SAVING "   FLOW JA FACE " ON UNIT  50 AT TIME STEP     10, STRESS PERIOD      9
 UBUDSVU SAVING "             CLN" ON UNIT  50 AT TIME STEP     10, STRESS PERIOD      9
 UBUDSVU SAVING "  CLN CONST HEAD" ON UNIT 144 AT TIME STEP     10, STRESS PERIOD      9
 UBUDSVU SAVING "   FLOW CLN FACE" ON UNIT 144 AT TIME STEP     10, STRESS PERIOD      9
 UBUDSVU SAVING "             GWF" ON UNIT 144 AT TIME STEP     10, STRESS PERIOD      9
 UBUDSVU SAVING "           WELLS" ON UNIT  50 AT TIME STEP     10, STRESS PERIOD      9
 UBUDSVU SAVING "           WELLS" ON UNIT 144 AT TIME STEP     10, STRESS PERIOD      9

 HEAD WILL BE SAVED ON UNIT       30 AT END OF TIME STEP       10, STRESS PERIOD        9

 DRAWDOWN WILL BE SAVED ON UNIT   31 AT END OF TIME STEP  10, STRESS PERIOD    9

 CLN HEAD WILL BE SAVED ON UNIT   77 AT END OF TIME STEP  10, STRESS PERIOD    9
1
  VOLUMETRIC BUDGET FOR ENTIRE MODEL AT END OF TIME STEP      10 IN STRESS PERIOD       9
  ---------------------------------------------------------------------------------------

     CUMULATIVE VOLUMES      L**3       RATES FOR THIS TIME STEP      L**3/T
     ------------------                 ------------------------

           IN:                                      IN:
           ---                                      ---
             STORAGE =        1350.0000               STORAGE =           5.0000
         CLN STORAGE =           0.0000           CLN STORAGE =           0.0000
       CONSTANT HEAD =           0.0000         CONSTANT HEAD =           0.0000
      CLN CONST HEAD =           0.0000        CLN CONST HEAD =           0.0000
               WELLS =           0.0000                 WELLS =           0.0000

            TOTAL IN =        1350.0000              TOTAL IN =           5.0000

          OUT:                                     OUT:
          ----                                     ----
             STORAGE =           0.0000               STORAGE =           0.0000
         CLN STORAGE =           0.0000           CLN STORAGE =           0.0000
       CONSTANT HEAD =           0.0000         CONSTANT HEAD =           0.0000
      CLN CONST HEAD =           0.0000        CLN CONST HEAD =           0.0000
               WELLS =        1349.9999                 WELLS =           5.0000

           TOTAL OUT =        1349.9999             TOTAL OUT =           5.0000

            IN - OUT =       1.3283E-05              IN - OUT =       1.9153E-08

 PERCENT DISCREPANCY =           0.00     PERCENT DISCREPANCY =           0.00






          TIME SUMMARY AT END OF TIME STEP        10 IN STRESS PERIOD         9
                    SECONDS     MINUTES      HOURS       DAYS        YEARS
                    -----------------------------------------------------------
   TIME STEP LENGTH 5.15209E+05  8586.8      143.11      5.9631     1.63260E-02
 STRESS PERIOD TIME 2.59200E+06  43200.      720.00      30.000     8.21355E-02
         TOTAL TIME 2.33280E+07 3.88800E+05  6480.0      270.00     0.73922    
1
 ------------------------------------------------------------------------------------------------------------
 
 SOLVING FOR TRANSPORT 

 ------------------------------------------------------------------------------------------------------------------------
     1 CALLS TO SPARSE MATRIX SOLVER PACKAGE IN TRANSPORT TIME STEP      10 STRESS PERIOD       9 SPECIES  1

 TOTAL OF       1OUTER ITERATIONS
  MAXIMUM CHANGE FOR EACH ITERATION:
   MAX. CHANGE        NODE  MAX. CHANGE        NODE  MAX. CHANGE        NODE  MAX. CHANGE        NODE  MAX. CHANGE        NODE
 ------------------------------------------------------------------------------------------------------------------------------------
  -0.47667E-10,        191

  MAXIMUM CHANGE FOR CLN NODE AT EACH ITERATION:
   MAX. CHANGE    CLN-CELL  MAX. CHANGE    CLN-CELL  MAX. CHANGE    CLN-CELL  MAX. CHANGE    CLN-CELL  MAX. CHANGE    CLN-CELL
 ------------------------------------------------------------------------------------------------------------------------------------
  -0.23861E-09,          1
     TRANSPORT SOLUTION COMPLETE FOR COMPONENT SPECIES NUMBER    1
     ------------------------------------------------------------
 UBUDSVU SAVING "    MASS STORAGE" ON UNIT 145 AT TIME STEP     10, STRESS PERIOD      9
 UBUDSVU SAVING "CLN MASS STORAGE" ON UNIT 145 AT TIME STEP     10, STRESS PERIOD      9
 UBUDSVU SAVING "CNST H MASS FLUX" ON UNIT 145 AT TIME STEP     10, STRESS PERIOD      9
 UBUDSVU SAVING "  WELL MASS FLUX" ON UNIT 145 AT TIME STEP     10, STRESS PERIOD      9

 TRANSPORT SOLUTION COMPLETE FOR ALL SPECIES, SORTING OUTPUT FOR CONCENTRATIONS AND MASS BALANCE
 ----------------------------------------------------------------------------------------------------
     TRANSPORT OUTPUT FOR COMPONENT SPECIES NUMBER    1
     ------------------------------------------------------------

 CONC WILL BE SAVED ON UNIT  132 AT END OF TIME STEP       10, STRESS PERIOD        9

 CLN CONC WILL BE SAVED ON UNIT  188 AT END OF TIME STEP  10, STRESS PERIOD    9
1
  VOLUMETRIC BUDGET FOR ENTIRE MODEL AT END OF TIME STEP      10 IN STRESS PERIOD       9
  ---------------------------------------------------------------------------------------

     CUMULATIVE VOLUMES      L**3       RATES FOR THIS TIME STEP      L**3/T
     ------------------                 ------------------------

           IN:                                      IN:
           ---                                      ---
        MASS STORAGE =         135.0000          MASS STORAGE =           0.5000
    CNST H MASS FLUX =           0.0000      CNST H MASS FLUX =           0.0000
      WELL MASS FLUX =           0.0000        WELL MASS FLUX =           0.0000

            TOTAL IN =         135.0000              TOTAL IN =           0.5000

          OUT:                                     OUT:
          ----                                     ----
        MASS STORAGE =           0.2827          MASS STORAGE =           0.0000
    CNST H MASS FLUX =           0.0000      CNST H MASS FLUX =           0.0000
      WELL MASS FLUX =         134.7173        WELL MASS FLUX =           0.5000

           TOTAL OUT =         135.0000             TOTAL OUT =           0.5000

            IN - OUT =       4.0671E-11              IN - OUT =           0.0000

 PERCENT DISCREPANCY =           0.00     PERCENT DISCREPANCY =           0.00






          TIME SUMMARY AT END OF TIME STEP        10 IN STRESS PERIOD         9
                    SECONDS     MINUTES      HOURS       DAYS        YEARS
                    -----------------------------------------------------------
   TIME STEP LENGTH 5.15209E+05  8586.8      143.11      5.9631     1.63260E-02
 STRESS PERIOD TIME 2.59200E+06  43200.      720.00      30.000     8.21355E-02
         TOTAL TIME 2.33280E+07 3.88800E+05  6480.0      270.00     0.73922    
1
1
                            STRESS PERIOD NO.   10, LENGTH =   30.00000    
                            -----------------------------------------------

                              NUMBER OF TIME STEPS =        10

                               MULTIPLIER FOR DELT =     1.200

                            INITIAL TIME STEP SIZE =   1.155682    

 WEL -- WELL PACKAGE, VERSION 7, 5/2/2005 INPUT READ FROM UNIT   12

 WELL NO.  CLN-NODE       STRESS FACTOR         C01             
 ---------------------------------------------------------------
        1            3      -5.000           0.000           0.000    

      1 WELL 
 -------------------------------------------------------------------------------------
 
 SOLVING FOR HEAD 

 Outer-Iteration  Inner-Iteration  Backtracking  Number of        Incoming       Outgoing  Maximum HeadChange      Maximum Head Change
     Number           Count           Flag       Backtracks       Residual       Residual           Value              Location
        1                             0             0          0.399960E-01     0.399960E-01
        1                5                                                                       -0.559425E-01               400           GWF-node number
        1                5                                                                       -0.524656E-01                 1           CLN-node number
        2                             0             0          0.666503E-15     0.666503E-15
        2                1                                                                       -0.284695E-08               190           GWF-node number
        2                1                                                                       -0.654513E-08                 3           CLN-node number


     2 CALLS TO SPARSE MATRIX SOLVER PACKAGE  IN FLOW TIME STEP       1 STRESS PERIOD      10

 TOTAL OF       2OUTER ITERATIONS
  MAXIMUM CHANGE FOR EACH ITERATION:
   MAX. CHANGE        NODE  MAX. CHANGE        NODE  MAX. CHANGE        NODE  MAX. CHANGE        NODE  MAX. CHANGE        NODE
 ------------------------------------------------------------------------------------------------------------------------------------
  -0.55943E-01,        400 -0.28470E-08,        190

  MAXIMUM CHANGE FOR CLN NODE AT EACH ITERATION:
   MAX. CHANGE    CLN-CELL  MAX. CHANGE    CLN-CELL  MAX. CHANGE    CLN-CELL  MAX. CHANGE    CLN-CELL  MAX. CHANGE    CLN-CELL
 ------------------------------------------------------------------------------------------------------------------------------------
  -0.52466E-01,          1 -0.65451E-08,          3

 HEAD/DRAWDOWN PRINTOUT FLAG = 1     TOTAL BUDGET PRINTOUT FLAG = 1
 CELL-BY-CELL FLOW TERM FLAG = 1
 CONCENTRATION PRINTOUT FLAG = 1

 OUTPUT FLAGS FOR ALL LAYERS ARE THE SAME:
   HEAD    DRAWDOWN  HEAD  DRAWDOWN    CONC    CONC
 PRINTOUT  PRINTOUT  SAVE    SAVE    PRINTOUT  SAVE
 ---------------------------------------------------
     0         0       1       1       0       1
 UBUDSVU SAVING "         STORAGE" ON UNIT  50 AT TIME STEP      1, STRESS PERIOD     10
 UBUDSV SAVING "     CLN STORAGE" ON UNIT 144 AT TIME STEP      1, STRESS PERIOD      10
 UBUDSVU SAVING "   CONSTANT HEAD" ON UNIT  50 AT TIME STEP      1, STRESS PERIOD     10
 UBUDSVU SAVING "   FLOW JA FACE " ON UNIT  50 AT TIME STEP      1, STRESS PERIOD     10
 UBUDSVU SAVING "             CLN" ON UNIT  50 AT TIME STEP      1, STRESS PERIOD     10
 UBUDSVU SAVING "  CLN CONST HEAD" ON UNIT 144 AT TIME STEP      1, STRESS PERIOD     10
 UBUDSVU SAVING "   FLOW CLN FACE" ON UNIT 144 AT TIME STEP      1, STRESS PERIOD     10
 UBUDSVU SAVING "             GWF" ON UNIT 144 AT TIME STEP      1, STRESS PERIOD     10
 UBUDSVU SAVING "           WELLS" ON UNIT  50 AT TIME STEP      1, STRESS PERIOD     10
 UBUDSVU SAVING "           WELLS" ON UNIT 144 AT TIME STEP      1, STRESS PERIOD     10

 HEAD WILL BE SAVED ON UNIT       30 AT END OF TIME STEP        1, STRESS PERIOD       10

 DRAWDOWN WILL BE SAVED ON UNIT   31 AT END OF TIME STEP   1, STRESS PERIOD   10

 CLN HEAD WILL BE SAVED ON UNIT   77 AT END OF TIME STEP   1, STRESS PERIOD   10
1
  VOLUMETRIC BUDGET FOR ENTIRE MODEL AT END OF TIME STEP       1 IN STRESS PERIOD      10
  ---------------------------------------------------------------------------------------

     CUMULATIVE VOLUMES      L**3       RATES FOR THIS TIME STEP      L**3/T
     ------------------                 ------------------------

           IN:                                      IN:
           ---                                      ---
             STORAGE =        1355.7784               STORAGE =           5.0000
         CLN STORAGE =           0.0000           CLN STORAGE =           0.0000
       CONSTANT HEAD =           0.0000         CONSTANT HEAD =           0.0000
      CLN CONST HEAD =           0.0000        CLN CONST HEAD =           0.0000
               WELLS =           0.0000                 WELLS =           0.0000

            TOTAL IN =        1355.7784              TOTAL IN =           5.0000

          OUT:                                     OUT:
          ----                                     ----
             STORAGE =           0.0000               STORAGE =           0.0000
         CLN STORAGE =           0.0000           CLN STORAGE =           0.0000
       CONSTANT HEAD =           0.0000         CONSTANT HEAD =           0.0000
      CLN CONST HEAD =           0.0000        CLN CONST HEAD =           0.0000
               WELLS =        1355.7784                 WELLS =           5.0000

           TOTAL OUT =        1355.7784             TOTAL OUT =           5.0000

            IN - OUT =       1.3312E-05              IN - OUT =       2.5077E-08

 PERCENT DISCREPANCY =           0.00     PERCENT DISCREPANCY =           0.00






          TIME SUMMARY AT END OF TIME STEP         1 IN STRESS PERIOD        10
                    SECONDS     MINUTES      HOURS       DAYS        YEARS
                    -----------------------------------------------------------
   TIME STEP LENGTH  99851.      1664.2      27.736      1.1557     3.16409E-03
 STRESS PERIOD TIME  99851.      1664.2      27.736      1.1557     3.16409E-03
         TOTAL TIME 2.34278E+07 3.90464E+05  6507.7      271.16     0.74238    
1
 ------------------------------------------------------------------------------------------------------------
 
 SOLVING FOR TRANSPORT 

 ------------------------------------------------------------------------------------------------------------------------
     1 CALLS TO SPARSE MATRIX SOLVER PACKAGE IN TRANSPORT TIME STEP       1 STRESS PERIOD      10 SPECIES  1

 TOTAL OF       1OUTER ITERATIONS
  MAXIMUM CHANGE FOR EACH ITERATION:
   MAX. CHANGE        NODE  MAX. CHANGE        NODE  MAX. CHANGE        NODE  MAX. CHANGE        NODE  MAX. CHANGE        NODE
 ------------------------------------------------------------------------------------------------------------------------------------
  -0.16909E-11,        191

  MAXIMUM CHANGE FOR CLN NODE AT EACH ITERATION:
   MAX. CHANGE    CLN-CELL  MAX. CHANGE    CLN-CELL  MAX. CHANGE    CLN-CELL  MAX. CHANGE    CLN-CELL  MAX. CHANGE    CLN-CELL
 ------------------------------------------------------------------------------------------------------------------------------------
  -0.20543E-08,          2
     TRANSPORT SOLUTION COMPLETE FOR COMPONENT SPECIES NUMBER    1
     ------------------------------------------------------------
 UBUDSVU SAVING "    MASS STORAGE" ON UNIT 145 AT TIME STEP      1, STRESS PERIOD     10
 UBUDSVU SAVING "CLN MASS STORAGE" ON UNIT 145 AT TIME STEP      1, STRESS PERIOD     10
 UBUDSVU SAVING "CNST H MASS FLUX" ON UNIT 145 AT TIME STEP      1, STRESS PERIOD     10
 UBUDSVU SAVING "  WELL MASS FLUX" ON UNIT 145 AT TIME STEP      1, STRESS PERIOD     10

 TRANSPORT SOLUTION COMPLETE FOR ALL SPECIES, SORTING OUTPUT FOR CONCENTRATIONS AND MASS BALANCE
 ----------------------------------------------------------------------------------------------------
     TRANSPORT OUTPUT FOR COMPONENT SPECIES NUMBER    1
     ------------------------------------------------------------

 CONC WILL BE SAVED ON UNIT  132 AT END OF TIME STEP        1, STRESS PERIOD       10

 CLN CONC WILL BE SAVED ON UNIT  188 AT END OF TIME STEP   1, STRESS PERIOD   10
1
  VOLUMETRIC BUDGET FOR ENTIRE MODEL AT END OF TIME STEP       1 IN STRESS PERIOD      10
  ---------------------------------------------------------------------------------------

     CUMULATIVE VOLUMES      L**3       RATES FOR THIS TIME STEP      L**3/T
     ------------------                 ------------------------

           IN:                                      IN:
           ---                                      ---
        MASS STORAGE =         135.5778          MASS STORAGE =           0.5000
    CNST H MASS FLUX =           0.0000      CNST H MASS FLUX =           0.0000
      WELL MASS FLUX =           0.0000        WELL MASS FLUX =           0.0000

            TOTAL IN =         135.5778              TOTAL IN =           0.5000

          OUT:                                     OUT:
          ----                                     ----
        MASS STORAGE =           0.2827          MASS STORAGE =       1.1273E-09
    CNST H MASS FLUX =           0.0000      CNST H MASS FLUX =           0.0000
      WELL MASS FLUX =         135.2951        WELL MASS FLUX =           0.5000

           TOTAL OUT =         135.5778             TOTAL OUT =           0.5000

            IN - OUT =       4.0444E-11              IN - OUT =      -1.1273E-09

 PERCENT DISCREPANCY =           0.00     PERCENT DISCREPANCY =          -0.00






          TIME SUMMARY AT END OF TIME STEP         1 IN STRESS PERIOD        10
                    SECONDS     MINUTES      HOURS       DAYS        YEARS
                    -----------------------------------------------------------
   TIME STEP LENGTH  99851.      1664.2      27.736      1.1557     3.16409E-03
 STRESS PERIOD TIME  99851.      1664.2      27.736      1.1557     3.16409E-03
         TOTAL TIME 2.34278E+07 3.90464E+05  6507.7      271.16     0.74238    
1
 -------------------------------------------------------------------------------------
 
 SOLVING FOR HEAD 

 Outer-Iteration  Inner-Iteration  Backtracking  Number of        Incoming       Outgoing  Maximum HeadChange      Maximum Head Change
     Number           Count           Flag       Backtracks       Residual       Residual           Value              Location
        1                             0             0          0.399643E-01     0.399643E-01
        1                5                                                                       -0.670872E-01               400           GWF-node number
        1                5                                                                       -0.629190E-01                 3           CLN-node number
        2                             0             0          0.309335E-14     0.309335E-14
        2                1                                                                       -0.211410E-07               190           GWF-node number
        2                1                                                                       -0.523526E-07                 3           CLN-node number
     2 CALLS TO SPARSE MATRIX SOLVER PACKAGE  IN FLOW TIME STEP       2 STRESS PERIOD      10

 TOTAL OF       2OUTER ITERATIONS
  MAXIMUM CHANGE FOR EACH ITERATION:
   MAX. CHANGE        NODE  MAX. CHANGE        NODE  MAX. CHANGE        NODE  MAX. CHANGE        NODE  MAX. CHANGE        NODE
 ------------------------------------------------------------------------------------------------------------------------------------
  -0.67087E-01,        400 -0.21141E-07,        190

  MAXIMUM CHANGE FOR CLN NODE AT EACH ITERATION:
   MAX. CHANGE    CLN-CELL  MAX. CHANGE    CLN-CELL  MAX. CHANGE    CLN-CELL  MAX. CHANGE    CLN-CELL  MAX. CHANGE    CLN-CELL
 ------------------------------------------------------------------------------------------------------------------------------------
  -0.62919E-01,          3 -0.52353E-07,          3

 HEAD/DRAWDOWN PRINTOUT FLAG = 1     TOTAL BUDGET PRINTOUT FLAG = 1
 CELL-BY-CELL FLOW TERM FLAG = 1
 CONCENTRATION PRINTOUT FLAG = 1

 OUTPUT FLAGS FOR ALL LAYERS ARE THE SAME:
   HEAD    DRAWDOWN  HEAD  DRAWDOWN    CONC    CONC
 PRINTOUT  PRINTOUT  SAVE    SAVE    PRINTOUT  SAVE
 ---------------------------------------------------
     0         0       1       1       0       1
 UBUDSVU SAVING "         STORAGE" ON UNIT  50 AT TIME STEP      2, STRESS PERIOD     10
 UBUDSV SAVING "     CLN STORAGE" ON UNIT 144 AT TIME STEP      2, STRESS PERIOD      10
 UBUDSVU SAVING "   CONSTANT HEAD" ON UNIT  50 AT TIME STEP      2, STRESS PERIOD     10
 UBUDSVU SAVING "   FLOW JA FACE " ON UNIT  50 AT TIME STEP      2, STRESS PERIOD     10
 UBUDSVU SAVING "             CLN" ON UNIT  50 AT TIME STEP      2, STRESS PERIOD     10
 UBUDSVU SAVING "  CLN CONST HEAD" ON UNIT 144 AT TIME STEP      2, STRESS PERIOD     10
 UBUDSVU SAVING "   FLOW CLN FACE" ON UNIT 144 AT TIME STEP      2, STRESS PERIOD     10
 UBUDSVU SAVING "             GWF" ON UNIT 144 AT TIME STEP      2, STRESS PERIOD     10
 UBUDSVU SAVING "           WELLS" ON UNIT  50 AT TIME STEP      2, STRESS PERIOD     10
 UBUDSVU SAVING "           WELLS" ON UNIT 144 AT TIME STEP      2, STRESS PERIOD     10

 HEAD WILL BE SAVED ON UNIT       30 AT END OF TIME STEP        2, STRESS PERIOD       10

 DRAWDOWN WILL BE SAVED ON UNIT   31 AT END OF TIME STEP   2, STRESS PERIOD   10

 CLN HEAD WILL BE SAVED ON UNIT   77 AT END OF TIME STEP   2, STRESS PERIOD   10
1
  VOLUMETRIC BUDGET FOR ENTIRE MODEL AT END OF TIME STEP       2 IN STRESS PERIOD      10
  ---------------------------------------------------------------------------------------

     CUMULATIVE VOLUMES      L**3       RATES FOR THIS TIME STEP      L**3/T
     ------------------                 ------------------------

           IN:                                      IN:
           ---                                      ---
             STORAGE =        1362.7125               STORAGE =           5.0000
         CLN STORAGE =           0.0000           CLN STORAGE =           0.0000
       CONSTANT HEAD =           0.0000         CONSTANT HEAD =           0.0000
      CLN CONST HEAD =           0.0000        CLN CONST HEAD =           0.0000
               WELLS =           0.0000                 WELLS =           0.0000

            TOTAL IN =        1362.7125              TOTAL IN =           5.0000

          OUT:                                     OUT:
          ----                                     ----
             STORAGE =           0.0000               STORAGE =           0.0000
         CLN STORAGE =           0.0000           CLN STORAGE =           0.0000
       CONSTANT HEAD =           0.0000         CONSTANT HEAD =           0.0000
      CLN CONST HEAD =           0.0000        CLN CONST HEAD =           0.0000
               WELLS =        1362.7125                 WELLS =           5.0000

           TOTAL OUT =        1362.7125             TOTAL OUT =           5.0000

            IN - OUT =       1.3362E-05              IN - OUT =       3.6059E-08

 PERCENT DISCREPANCY =           0.00     PERCENT DISCREPANCY =           0.00






          TIME SUMMARY AT END OF TIME STEP         2 IN STRESS PERIOD        10
                    SECONDS     MINUTES      HOURS       DAYS        YEARS
                    -----------------------------------------------------------
   TIME STEP LENGTH 1.19821E+05  1997.0      33.284      1.3868     3.79690E-03
 STRESS PERIOD TIME 2.19672E+05  3661.2      61.020      2.5425     6.96099E-03
         TOTAL TIME 2.35477E+07 3.92461E+05  6541.0      272.54     0.74618    
1
 ------------------------------------------------------------------------------------------------------------
 
 SOLVING FOR TRANSPORT 

 ------------------------------------------------------------------------------------------------------------------------
     1 CALLS TO SPARSE MATRIX SOLVER PACKAGE IN TRANSPORT TIME STEP       2 STRESS PERIOD      10 SPECIES  1

 TOTAL OF       1OUTER ITERATIONS
  MAXIMUM CHANGE FOR EACH ITERATION:
   MAX. CHANGE        NODE  MAX. CHANGE        NODE  MAX. CHANGE        NODE  MAX. CHANGE        NODE  MAX. CHANGE        NODE
 ------------------------------------------------------------------------------------------------------------------------------------
  -0.43669E-11,        191

  MAXIMUM CHANGE FOR CLN NODE AT EACH ITERATION:
   MAX. CHANGE    CLN-CELL  MAX. CHANGE    CLN-CELL  MAX. CHANGE    CLN-CELL  MAX. CHANGE    CLN-CELL  MAX. CHANGE    CLN-CELL
 ------------------------------------------------------------------------------------------------------------------------------------
   0.58903E-09,          2
     TRANSPORT SOLUTION COMPLETE FOR COMPONENT SPECIES NUMBER    1
     ------------------------------------------------------------
 UBUDSVU SAVING "    MASS STORAGE" ON UNIT 145 AT TIME STEP      2, STRESS PERIOD     10
 UBUDSVU SAVING "CLN MASS STORAGE" ON UNIT 145 AT TIME STEP      2, STRESS PERIOD     10
 UBUDSVU SAVING "CNST H MASS FLUX" ON UNIT 145 AT TIME STEP      2, STRESS PERIOD     10
 UBUDSVU SAVING "  WELL MASS FLUX" ON UNIT 145 AT TIME STEP      2, STRESS PERIOD     10

 TRANSPORT SOLUTION COMPLETE FOR ALL SPECIES, SORTING OUTPUT FOR CONCENTRATIONS AND MASS BALANCE
 ----------------------------------------------------------------------------------------------------
     TRANSPORT OUTPUT FOR COMPONENT SPECIES NUMBER    1
     ------------------------------------------------------------

 CONC WILL BE SAVED ON UNIT  132 AT END OF TIME STEP        2, STRESS PERIOD       10

 CLN CONC WILL BE SAVED ON UNIT  188 AT END OF TIME STEP   2, STRESS PERIOD   10
1
  VOLUMETRIC BUDGET FOR ENTIRE MODEL AT END OF TIME STEP       2 IN STRESS PERIOD      10
  ---------------------------------------------------------------------------------------

     CUMULATIVE VOLUMES      L**3       RATES FOR THIS TIME STEP      L**3/T
     ------------------                 ------------------------

           IN:                                      IN:
           ---                                      ---
        MASS STORAGE =         136.2712          MASS STORAGE =           0.5000
    CNST H MASS FLUX =           0.0000      CNST H MASS FLUX =           0.0000
      WELL MASS FLUX =           0.0000        WELL MASS FLUX =           0.0000

            TOTAL IN =         136.2712              TOTAL IN =           0.5000

          OUT:                                     OUT:
          ----                                     ----
        MASS STORAGE =           0.2827          MASS STORAGE =       4.2366E-10
    CNST H MASS FLUX =           0.0000      CNST H MASS FLUX =           0.0000
      WELL MASS FLUX =         135.9885        WELL MASS FLUX =           0.5000

           TOTAL OUT =         136.2712             TOTAL OUT =           0.5000

            IN - OUT =       4.0103E-11              IN - OUT =      -4.2366E-10

 PERCENT DISCREPANCY =           0.00     PERCENT DISCREPANCY =          -0.00






          TIME SUMMARY AT END OF TIME STEP         2 IN STRESS PERIOD        10
                    SECONDS     MINUTES      HOURS       DAYS        YEARS
                    -----------------------------------------------------------
   TIME STEP LENGTH 1.19821E+05  1997.0      33.284      1.3868     3.79690E-03
 STRESS PERIOD TIME 2.19672E+05  3661.2      61.020      2.5425     6.96099E-03
         TOTAL TIME 2.35477E+07 3.92461E+05  6541.0      272.54     0.74618    
1
 -------------------------------------------------------------------------------------
 
 SOLVING FOR HEAD 

 Outer-Iteration  Inner-Iteration  Backtracking  Number of        Incoming       Outgoing  Maximum HeadChange      Maximum Head Change
     Number           Count           Flag       Backtracks       Residual       Residual           Value              Location
        1                             0             0          0.399264E-01     0.399264E-01
        1                5                                                                       -0.804415E-01               400           GWF-node number
        1                5                                                                       -0.754456E-01                 3           CLN-node number
        2                             0             0          0.909293E-14     0.909293E-14
        2                1                                                                       -0.558623E-07               190           GWF-node number
        2                1                                                                       -0.130913E-06                 3           CLN-node number
     2 CALLS TO SPARSE MATRIX SOLVER PACKAGE  IN FLOW TIME STEP       3 STRESS PERIOD      10

 TOTAL OF       2OUTER ITERATIONS
  MAXIMUM CHANGE FOR EACH ITERATION:
   MAX. CHANGE        NODE  MAX. CHANGE        NODE  MAX. CHANGE        NODE  MAX. CHANGE        NODE  MAX. CHANGE        NODE
 ------------------------------------------------------------------------------------------------------------------------------------
  -0.80441E-01,        400 -0.55862E-07,        190

  MAXIMUM CHANGE FOR CLN NODE AT EACH ITERATION:
   MAX. CHANGE    CLN-CELL  MAX. CHANGE    CLN-CELL  MAX. CHANGE    CLN-CELL  MAX. CHANGE    CLN-CELL  MAX. CHANGE    CLN-CELL
 ------------------------------------------------------------------------------------------------------------------------------------
  -0.75446E-01,          3 -0.13091E-06,          3

 HEAD/DRAWDOWN PRINTOUT FLAG = 1     TOTAL BUDGET PRINTOUT FLAG = 1
 CELL-BY-CELL FLOW TERM FLAG = 1
 CONCENTRATION PRINTOUT FLAG = 1

 OUTPUT FLAGS FOR ALL LAYERS ARE THE SAME:
   HEAD    DRAWDOWN  HEAD  DRAWDOWN    CONC    CONC
 PRINTOUT  PRINTOUT  SAVE    SAVE    PRINTOUT  SAVE
 ---------------------------------------------------
     0         0       1       1       0       1
 UBUDSVU SAVING "         STORAGE" ON UNIT  50 AT TIME STEP      3, STRESS PERIOD     10
 UBUDSV SAVING "     CLN STORAGE" ON UNIT 144 AT TIME STEP      3, STRESS PERIOD      10
 UBUDSVU SAVING "   CONSTANT HEAD" ON UNIT  50 AT TIME STEP      3, STRESS PERIOD     10
 UBUDSVU SAVING "   FLOW JA FACE " ON UNIT  50 AT TIME STEP      3, STRESS PERIOD     10
 UBUDSVU SAVING "             CLN" ON UNIT  50 AT TIME STEP      3, STRESS PERIOD     10
 UBUDSVU SAVING "  CLN CONST HEAD" ON UNIT 144 AT TIME STEP      3, STRESS PERIOD     10
 UBUDSVU SAVING "   FLOW CLN FACE" ON UNIT 144 AT TIME STEP      3, STRESS PERIOD     10
 UBUDSVU SAVING "             GWF" ON UNIT 144 AT TIME STEP      3, STRESS PERIOD     10
 UBUDSVU SAVING "           WELLS" ON UNIT  50 AT TIME STEP      3, STRESS PERIOD     10
 UBUDSVU SAVING "           WELLS" ON UNIT 144 AT TIME STEP      3, STRESS PERIOD     10

 HEAD WILL BE SAVED ON UNIT       30 AT END OF TIME STEP        3, STRESS PERIOD       10

 DRAWDOWN WILL BE SAVED ON UNIT   31 AT END OF TIME STEP   3, STRESS PERIOD   10

 CLN HEAD WILL BE SAVED ON UNIT   77 AT END OF TIME STEP   3, STRESS PERIOD   10
1
  VOLUMETRIC BUDGET FOR ENTIRE MODEL AT END OF TIME STEP       3 IN STRESS PERIOD      10
  ---------------------------------------------------------------------------------------

     CUMULATIVE VOLUMES      L**3       RATES FOR THIS TIME STEP      L**3/T
     ------------------                 ------------------------

           IN:                                      IN:
           ---                                      ---
             STORAGE =        1371.0334               STORAGE =           5.0000
         CLN STORAGE =           0.0000           CLN STORAGE =           0.0000
       CONSTANT HEAD =           0.0000         CONSTANT HEAD =           0.0000
      CLN CONST HEAD =           0.0000        CLN CONST HEAD =           0.0000
               WELLS =           0.0000                 WELLS =           0.0000

            TOTAL IN =        1371.0334              TOTAL IN =           5.0000

          OUT:                                     OUT:
          ----                                     ----
             STORAGE =           0.0000               STORAGE =           0.0000
         CLN STORAGE =           0.0000           CLN STORAGE =           0.0000
       CONSTANT HEAD =           0.0000         CONSTANT HEAD =           0.0000
      CLN CONST HEAD =           0.0000        CLN CONST HEAD =           0.0000
               WELLS =        1371.0334                 WELLS =           5.0000

           TOTAL OUT =        1371.0334             TOTAL OUT =           5.0000

            IN - OUT =       1.3409E-05              IN - OUT =       2.8231E-08

 PERCENT DISCREPANCY =           0.00     PERCENT DISCREPANCY =           0.00






          TIME SUMMARY AT END OF TIME STEP         3 IN STRESS PERIOD        10
                    SECONDS     MINUTES      HOURS       DAYS        YEARS
                    -----------------------------------------------------------
   TIME STEP LENGTH 1.43785E+05  2396.4      39.940      1.6642     4.55628E-03
 STRESS PERIOD TIME 3.63458E+05  6057.6      100.96      4.2067     1.15173E-02
         TOTAL TIME 2.36915E+07 3.94858E+05  6581.0      274.21     0.75074    
1
 ------------------------------------------------------------------------------------------------------------
 
 SOLVING FOR TRANSPORT 

 ------------------------------------------------------------------------------------------------------------------------
     1 CALLS TO SPARSE MATRIX SOLVER PACKAGE IN TRANSPORT TIME STEP       3 STRESS PERIOD      10 SPECIES  1

 TOTAL OF       1OUTER ITERATIONS
  MAXIMUM CHANGE FOR EACH ITERATION:
   MAX. CHANGE        NODE  MAX. CHANGE        NODE  MAX. CHANGE        NODE  MAX. CHANGE        NODE  MAX. CHANGE        NODE
 ------------------------------------------------------------------------------------------------------------------------------------
  -0.10243E-10,        191

  MAXIMUM CHANGE FOR CLN NODE AT EACH ITERATION:
   MAX. CHANGE    CLN-CELL  MAX. CHANGE    CLN-CELL  MAX. CHANGE    CLN-CELL  MAX. CHANGE    CLN-CELL  MAX. CHANGE    CLN-CELL
 ------------------------------------------------------------------------------------------------------------------------------------
   0.83885E-09,          2
     TRANSPORT SOLUTION COMPLETE FOR COMPONENT SPECIES NUMBER    1
     ------------------------------------------------------------
 UBUDSVU SAVING "    MASS STORAGE" ON UNIT 145 AT TIME STEP      3, STRESS PERIOD     10
 UBUDSVU SAVING "CLN MASS STORAGE" ON UNIT 145 AT TIME STEP      3, STRESS PERIOD     10
 UBUDSVU SAVING "CNST H MASS FLUX" ON UNIT 145 AT TIME STEP      3, STRESS PERIOD     10
 UBUDSVU SAVING "  WELL MASS FLUX" ON UNIT 145 AT TIME STEP      3, STRESS PERIOD     10

 TRANSPORT SOLUTION COMPLETE FOR ALL SPECIES, SORTING OUTPUT FOR CONCENTRATIONS AND MASS BALANCE
 ----------------------------------------------------------------------------------------------------
     TRANSPORT OUTPUT FOR COMPONENT SPECIES NUMBER    1
     ------------------------------------------------------------

 CONC WILL BE SAVED ON UNIT  132 AT END OF TIME STEP        3, STRESS PERIOD       10

 CLN CONC WILL BE SAVED ON UNIT  188 AT END OF TIME STEP   3, STRESS PERIOD   10
1
  VOLUMETRIC BUDGET FOR ENTIRE MODEL AT END OF TIME STEP       3 IN STRESS PERIOD      10
  ---------------------------------------------------------------------------------------

     CUMULATIVE VOLUMES      L**3       RATES FOR THIS TIME STEP      L**3/T
     ------------------                 ------------------------

           IN:                                      IN:
           ---                                      ---
        MASS STORAGE =         137.1033          MASS STORAGE =           0.5000
    CNST H MASS FLUX =           0.0000      CNST H MASS FLUX =           0.0000
      WELL MASS FLUX =           0.0000        WELL MASS FLUX =           0.0000

            TOTAL IN =         137.1033              TOTAL IN =           0.5000

          OUT:                                     OUT:
          ----                                     ----
        MASS STORAGE =           0.2827          MASS STORAGE =       6.4228E-10
    CNST H MASS FLUX =           0.0000      CNST H MASS FLUX =           0.0000
      WELL MASS FLUX =         136.8206        WELL MASS FLUX =           0.5000

           TOTAL OUT =         137.1033             TOTAL OUT =           0.5000

            IN - OUT =       3.8682E-11              IN - OUT =      -6.4228E-10

 PERCENT DISCREPANCY =           0.00     PERCENT DISCREPANCY =          -0.00






          TIME SUMMARY AT END OF TIME STEP         3 IN STRESS PERIOD        10
                    SECONDS     MINUTES      HOURS       DAYS        YEARS
                    -----------------------------------------------------------
   TIME STEP LENGTH 1.43785E+05  2396.4      39.940      1.6642     4.55628E-03
 STRESS PERIOD TIME 3.63458E+05  6057.6      100.96      4.2067     1.15173E-02
         TOTAL TIME 2.36915E+07 3.94858E+05  6581.0      274.21     0.75074    
1
 -------------------------------------------------------------------------------------
 
 SOLVING FOR HEAD 

 Outer-Iteration  Inner-Iteration  Backtracking  Number of        Incoming       Outgoing  Maximum HeadChange      Maximum Head Change
     Number           Count           Flag       Backtracks       Residual       Residual           Value              Location
        1                             0             0          0.398811E-01     0.398811E-01
        1                5                                                                       -0.964390E-01               400           GWF-node number
        1                5                                                                       -0.904529E-01                 3           CLN-node number
        2                             0             0          0.372201E-14     0.372201E-14
        2                1                                                                       -0.533654E-07               406           GWF-node number
        2                1                                                                       -0.448849E-07                 3           CLN-node number
     2 CALLS TO SPARSE MATRIX SOLVER PACKAGE  IN FLOW TIME STEP       4 STRESS PERIOD      10

 TOTAL OF       2OUTER ITERATIONS
  MAXIMUM CHANGE FOR EACH ITERATION:
   MAX. CHANGE        NODE  MAX. CHANGE        NODE  MAX. CHANGE        NODE  MAX. CHANGE        NODE  MAX. CHANGE        NODE
 ------------------------------------------------------------------------------------------------------------------------------------
  -0.96439E-01,        400 -0.53365E-07,        406

  MAXIMUM CHANGE FOR CLN NODE AT EACH ITERATION:
   MAX. CHANGE    CLN-CELL  MAX. CHANGE    CLN-CELL  MAX. CHANGE    CLN-CELL  MAX. CHANGE    CLN-CELL  MAX. CHANGE    CLN-CELL
 ------------------------------------------------------------------------------------------------------------------------------------
  -0.90453E-01,          3 -0.44885E-07,          3

 HEAD/DRAWDOWN PRINTOUT FLAG = 1     TOTAL BUDGET PRINTOUT FLAG = 1
 CELL-BY-CELL FLOW TERM FLAG = 1
 CONCENTRATION PRINTOUT FLAG = 1

 OUTPUT FLAGS FOR ALL LAYERS ARE THE SAME:
   HEAD    DRAWDOWN  HEAD  DRAWDOWN    CONC    CONC
 PRINTOUT  PRINTOUT  SAVE    SAVE    PRINTOUT  SAVE
 ---------------------------------------------------
     0         0       1       1       0       1
 UBUDSVU SAVING "         STORAGE" ON UNIT  50 AT TIME STEP      4, STRESS PERIOD     10
 UBUDSV SAVING "     CLN STORAGE" ON UNIT 144 AT TIME STEP      4, STRESS PERIOD      10
 UBUDSVU SAVING "   CONSTANT HEAD" ON UNIT  50 AT TIME STEP      4, STRESS PERIOD     10
 UBUDSVU SAVING "   FLOW JA FACE " ON UNIT  50 AT TIME STEP      4, STRESS PERIOD     10
 UBUDSVU SAVING "             CLN" ON UNIT  50 AT TIME STEP      4, STRESS PERIOD     10
 UBUDSVU SAVING "  CLN CONST HEAD" ON UNIT 144 AT TIME STEP      4, STRESS PERIOD     10
 UBUDSVU SAVING "   FLOW CLN FACE" ON UNIT 144 AT TIME STEP      4, STRESS PERIOD     10
 UBUDSVU SAVING "             GWF" ON UNIT 144 AT TIME STEP      4, STRESS PERIOD     10
 UBUDSVU SAVING "           WELLS" ON UNIT  50 AT TIME STEP      4, STRESS PERIOD     10
 UBUDSVU SAVING "           WELLS" ON UNIT 144 AT TIME STEP      4, STRESS PERIOD     10

 HEAD WILL BE SAVED ON UNIT       30 AT END OF TIME STEP        4, STRESS PERIOD       10

 DRAWDOWN WILL BE SAVED ON UNIT   31 AT END OF TIME STEP   4, STRESS PERIOD   10

 CLN HEAD WILL BE SAVED ON UNIT   77 AT END OF TIME STEP   4, STRESS PERIOD   10
1
  VOLUMETRIC BUDGET FOR ENTIRE MODEL AT END OF TIME STEP       4 IN STRESS PERIOD      10
  ---------------------------------------------------------------------------------------

     CUMULATIVE VOLUMES      L**3       RATES FOR THIS TIME STEP      L**3/T
     ------------------                 ------------------------

           IN:                                      IN:
           ---                                      ---
             STORAGE =        1381.0185               STORAGE =           5.0000
         CLN STORAGE =           0.0000           CLN STORAGE =           0.0000
       CONSTANT HEAD =           0.0000         CONSTANT HEAD =           0.0000
      CLN CONST HEAD =           0.0000        CLN CONST HEAD =           0.0000
               WELLS =           0.0000                 WELLS =           0.0000

            TOTAL IN =        1381.0185              TOTAL IN =           5.0000

          OUT:                                     OUT:
          ----                                     ----
             STORAGE =           0.0000               STORAGE =           0.0000
         CLN STORAGE =           0.0000           CLN STORAGE =           0.0000
       CONSTANT HEAD =           0.0000         CONSTANT HEAD =           0.0000
      CLN CONST HEAD =           0.0000        CLN CONST HEAD =           0.0000
               WELLS =        1381.0185                 WELLS =           5.0000

           TOTAL OUT =        1381.0185             TOTAL OUT =           5.0000

            IN - OUT =       1.3449E-05              IN - OUT =       1.9759E-08

 PERCENT DISCREPANCY =           0.00     PERCENT DISCREPANCY =           0.00






          TIME SUMMARY AT END OF TIME STEP         4 IN STRESS PERIOD        10
                    SECONDS     MINUTES      HOURS       DAYS        YEARS
                    -----------------------------------------------------------
   TIME STEP LENGTH 1.72542E+05  2875.7      47.928      1.9970     5.46754E-03
 STRESS PERIOD TIME 5.36000E+05  8933.3      148.89      6.2037     1.69848E-02
         TOTAL TIME 2.38640E+07 3.97733E+05  6628.9      276.20     0.75620    
1
 ------------------------------------------------------------------------------------------------------------
 
 SOLVING FOR TRANSPORT 

 ------------------------------------------------------------------------------------------------------------------------
     1 CALLS TO SPARSE MATRIX SOLVER PACKAGE IN TRANSPORT TIME STEP       4 STRESS PERIOD      10 SPECIES  1

 TOTAL OF       1OUTER ITERATIONS
  MAXIMUM CHANGE FOR EACH ITERATION:
   MAX. CHANGE        NODE  MAX. CHANGE        NODE  MAX. CHANGE        NODE  MAX. CHANGE        NODE  MAX. CHANGE        NODE
 ------------------------------------------------------------------------------------------------------------------------------------
  -0.58295E-11,        191

  MAXIMUM CHANGE FOR CLN NODE AT EACH ITERATION:
   MAX. CHANGE    CLN-CELL  MAX. CHANGE    CLN-CELL  MAX. CHANGE    CLN-CELL  MAX. CHANGE    CLN-CELL  MAX. CHANGE    CLN-CELL
 ------------------------------------------------------------------------------------------------------------------------------------
  -0.77900E-09,          1
     TRANSPORT SOLUTION COMPLETE FOR COMPONENT SPECIES NUMBER    1
     ------------------------------------------------------------
 UBUDSVU SAVING "    MASS STORAGE" ON UNIT 145 AT TIME STEP      4, STRESS PERIOD     10
 UBUDSVU SAVING "CLN MASS STORAGE" ON UNIT 145 AT TIME STEP      4, STRESS PERIOD     10
 UBUDSVU SAVING "CNST H MASS FLUX" ON UNIT 145 AT TIME STEP      4, STRESS PERIOD     10
 UBUDSVU SAVING "  WELL MASS FLUX" ON UNIT 145 AT TIME STEP      4, STRESS PERIOD     10

 TRANSPORT SOLUTION COMPLETE FOR ALL SPECIES, SORTING OUTPUT FOR CONCENTRATIONS AND MASS BALANCE
 ----------------------------------------------------------------------------------------------------
     TRANSPORT OUTPUT FOR COMPONENT SPECIES NUMBER    1
     ------------------------------------------------------------

 CONC WILL BE SAVED ON UNIT  132 AT END OF TIME STEP        4, STRESS PERIOD       10

 CLN CONC WILL BE SAVED ON UNIT  188 AT END OF TIME STEP   4, STRESS PERIOD   10
1
  VOLUMETRIC BUDGET FOR ENTIRE MODEL AT END OF TIME STEP       4 IN STRESS PERIOD      10
  ---------------------------------------------------------------------------------------

     CUMULATIVE VOLUMES      L**3       RATES FOR THIS TIME STEP      L**3/T
     ------------------                 ------------------------

           IN:                                      IN:
           ---                                      ---
        MASS STORAGE =         138.1019          MASS STORAGE =           0.5000
    CNST H MASS FLUX =           0.0000      CNST H MASS FLUX =           0.0000
      WELL MASS FLUX =           0.0000        WELL MASS FLUX =           0.0000

            TOTAL IN =         138.1019              TOTAL IN =           0.5000

          OUT:                                     OUT:
          ----                                     ----
        MASS STORAGE =           0.2827          MASS STORAGE =       6.0637E-12
    CNST H MASS FLUX =           0.0000      CNST H MASS FLUX =           0.0000
      WELL MASS FLUX =         137.8191        WELL MASS FLUX =           0.5000

           TOTAL OUT =         138.1019             TOTAL OUT =           0.5000

            IN - OUT =       3.8057E-11              IN - OUT =      -6.0637E-12

 PERCENT DISCREPANCY =           0.00     PERCENT DISCREPANCY =          -0.00






          TIME SUMMARY AT END OF TIME STEP         4 IN STRESS PERIOD        10
                    SECONDS     MINUTES      HOURS       DAYS        YEARS
                    -----------------------------------------------------------
   TIME STEP LENGTH 1.72542E+05  2875.7      47.928      1.9970     5.46754E-03
 STRESS PERIOD TIME 5.36000E+05  8933.3      148.89      6.2037     1.69848E-02
         TOTAL TIME 2.38640E+07 3.97733E+05  6628.9      276.20     0.75620    
1
 -------------------------------------------------------------------------------------
 
 SOLVING FOR HEAD 

 Outer-Iteration  Inner-Iteration  Backtracking  Number of        Incoming       Outgoing  Maximum HeadChange      Maximum Head Change
     Number           Count           Flag       Backtracks       Residual       Residual           Value              Location
        1                             0             0          0.398271E-01     0.398271E-01
        1                6                                                                       -0.115596                   400           GWF-node number
        1                6                                                                       -0.108426                     3           CLN-node number
        2                             0             0          0.110770E-14     0.110770E-14
        2                1                                                                        0.347359E-07               190           GWF-node number
        2                1                                                                        0.906200E-07                 3           CLN-node number
     2 CALLS TO SPARSE MATRIX SOLVER PACKAGE  IN FLOW TIME STEP       5 STRESS PERIOD      10

 TOTAL OF       2OUTER ITERATIONS
  MAXIMUM CHANGE FOR EACH ITERATION:
   MAX. CHANGE        NODE  MAX. CHANGE        NODE  MAX. CHANGE        NODE  MAX. CHANGE        NODE  MAX. CHANGE        NODE
 ------------------------------------------------------------------------------------------------------------------------------------
  -0.11560    ,        400  0.34736E-07,        190

  MAXIMUM CHANGE FOR CLN NODE AT EACH ITERATION:
   MAX. CHANGE    CLN-CELL  MAX. CHANGE    CLN-CELL  MAX. CHANGE    CLN-CELL  MAX. CHANGE    CLN-CELL  MAX. CHANGE    CLN-CELL
 ------------------------------------------------------------------------------------------------------------------------------------
  -0.10843    ,          3  0.90620E-07,          3

 HEAD/DRAWDOWN PRINTOUT FLAG = 1     TOTAL BUDGET PRINTOUT FLAG = 1
 CELL-BY-CELL FLOW TERM FLAG = 1
 CONCENTRATION PRINTOUT FLAG = 1

 OUTPUT FLAGS FOR ALL LAYERS ARE THE SAME:
   HEAD    DRAWDOWN  HEAD  DRAWDOWN    CONC    CONC
 PRINTOUT  PRINTOUT  SAVE    SAVE    PRINTOUT  SAVE
 ---------------------------------------------------
     0         0       1       1       0       1
 UBUDSVU SAVING "         STORAGE" ON UNIT  50 AT TIME STEP      5, STRESS PERIOD     10
 UBUDSV SAVING "     CLN STORAGE" ON UNIT 144 AT TIME STEP      5, STRESS PERIOD      10
 UBUDSVU SAVING "   CONSTANT HEAD" ON UNIT  50 AT TIME STEP      5, STRESS PERIOD     10
 UBUDSVU SAVING "   FLOW JA FACE " ON UNIT  50 AT TIME STEP      5, STRESS PERIOD     10
 UBUDSVU SAVING "             CLN" ON UNIT  50 AT TIME STEP      5, STRESS PERIOD     10
 UBUDSVU SAVING "  CLN CONST HEAD" ON UNIT 144 AT TIME STEP      5, STRESS PERIOD     10
 UBUDSVU SAVING "   FLOW CLN FACE" ON UNIT 144 AT TIME STEP      5, STRESS PERIOD     10
 UBUDSVU SAVING "             GWF" ON UNIT 144 AT TIME STEP      5, STRESS PERIOD     10
 UBUDSVU SAVING "           WELLS" ON UNIT  50 AT TIME STEP      5, STRESS PERIOD     10
 UBUDSVU SAVING "           WELLS" ON UNIT 144 AT TIME STEP      5, STRESS PERIOD     10

 HEAD WILL BE SAVED ON UNIT       30 AT END OF TIME STEP        5, STRESS PERIOD       10

 DRAWDOWN WILL BE SAVED ON UNIT   31 AT END OF TIME STEP   5, STRESS PERIOD   10

 CLN HEAD WILL BE SAVED ON UNIT   77 AT END OF TIME STEP   5, STRESS PERIOD   10
1
  VOLUMETRIC BUDGET FOR ENTIRE MODEL AT END OF TIME STEP       5 IN STRESS PERIOD      10
  ---------------------------------------------------------------------------------------

     CUMULATIVE VOLUMES      L**3       RATES FOR THIS TIME STEP      L**3/T
     ------------------                 ------------------------

           IN:                                      IN:
           ---                                      ---
             STORAGE =        1393.0006               STORAGE =           5.0000
         CLN STORAGE =           0.0000           CLN STORAGE =           0.0000
       CONSTANT HEAD =           0.0000         CONSTANT HEAD =           0.0000
      CLN CONST HEAD =           0.0000        CLN CONST HEAD =           0.0000
               WELLS =           0.0000                 WELLS =           0.0000

            TOTAL IN =        1393.0006              TOTAL IN =           5.0000

          OUT:                                     OUT:
          ----                                     ----
             STORAGE =           0.0000               STORAGE =           0.0000
         CLN STORAGE =           0.0000           CLN STORAGE =           0.0000
       CONSTANT HEAD =           0.0000         CONSTANT HEAD =           0.0000
      CLN CONST HEAD =           0.0000        CLN CONST HEAD =           0.0000
               WELLS =        1393.0006                 WELLS =           5.0000

           TOTAL OUT =        1393.0006             TOTAL OUT =           5.0000

            IN - OUT =       1.3642E-05              IN - OUT =       8.0754E-08

 PERCENT DISCREPANCY =           0.00     PERCENT DISCREPANCY =           0.00






          TIME SUMMARY AT END OF TIME STEP         5 IN STRESS PERIOD        10
                    SECONDS     MINUTES      HOURS       DAYS        YEARS
                    -----------------------------------------------------------
   TIME STEP LENGTH 2.07051E+05  3450.8      57.514      2.3964     6.56105E-03
 STRESS PERIOD TIME 7.43051E+05  12384.      206.40      8.6001     2.35459E-02
         TOTAL TIME 2.40710E+07 4.01184E+05  6686.4      278.60     0.76277    
1
 ------------------------------------------------------------------------------------------------------------
 
 SOLVING FOR TRANSPORT 

 ------------------------------------------------------------------------------------------------------------------------
     1 CALLS TO SPARSE MATRIX SOLVER PACKAGE IN TRANSPORT TIME STEP       5 STRESS PERIOD      10 SPECIES  1

 TOTAL OF       1OUTER ITERATIONS
  MAXIMUM CHANGE FOR EACH ITERATION:
   MAX. CHANGE        NODE  MAX. CHANGE        NODE  MAX. CHANGE        NODE  MAX. CHANGE        NODE  MAX. CHANGE        NODE
 ------------------------------------------------------------------------------------------------------------------------------------
   0.59200E-11,        191

  MAXIMUM CHANGE FOR CLN NODE AT EACH ITERATION:
   MAX. CHANGE    CLN-CELL  MAX. CHANGE    CLN-CELL  MAX. CHANGE    CLN-CELL  MAX. CHANGE    CLN-CELL  MAX. CHANGE    CLN-CELL
 ------------------------------------------------------------------------------------------------------------------------------------
   0.43098E-09,          3
     TRANSPORT SOLUTION COMPLETE FOR COMPONENT SPECIES NUMBER    1
     ------------------------------------------------------------
 UBUDSVU SAVING "    MASS STORAGE" ON UNIT 145 AT TIME STEP      5, STRESS PERIOD     10
 UBUDSVU SAVING "CLN MASS STORAGE" ON UNIT 145 AT TIME STEP      5, STRESS PERIOD     10
 UBUDSVU SAVING "CNST H MASS FLUX" ON UNIT 145 AT TIME STEP      5, STRESS PERIOD     10
 UBUDSVU SAVING "  WELL MASS FLUX" ON UNIT 145 AT TIME STEP      5, STRESS PERIOD     10

 TRANSPORT SOLUTION COMPLETE FOR ALL SPECIES, SORTING OUTPUT FOR CONCENTRATIONS AND MASS BALANCE
 ----------------------------------------------------------------------------------------------------
     TRANSPORT OUTPUT FOR COMPONENT SPECIES NUMBER    1
     ------------------------------------------------------------

 CONC WILL BE SAVED ON UNIT  132 AT END OF TIME STEP        5, STRESS PERIOD       10

 CLN CONC WILL BE SAVED ON UNIT  188 AT END OF TIME STEP   5, STRESS PERIOD   10
1
  VOLUMETRIC BUDGET FOR ENTIRE MODEL AT END OF TIME STEP       5 IN STRESS PERIOD      10
  ---------------------------------------------------------------------------------------

     CUMULATIVE VOLUMES      L**3       RATES FOR THIS TIME STEP      L**3/T
     ------------------                 ------------------------

           IN:                                      IN:
           ---                                      ---
        MASS STORAGE =         139.3001          MASS STORAGE =           0.5000
    CNST H MASS FLUX =           0.0000      CNST H MASS FLUX =           0.0000
      WELL MASS FLUX =           0.0000        WELL MASS FLUX =           0.0000

            TOTAL IN =         139.3001              TOTAL IN =           0.5000

          OUT:                                     OUT:
          ----                                     ----
        MASS STORAGE =           0.2827          MASS STORAGE =       2.4153E-10
    CNST H MASS FLUX =           0.0000      CNST H MASS FLUX =           0.0000
      WELL MASS FLUX =         139.0173        WELL MASS FLUX =           0.5000

           TOTAL OUT =         139.3001             TOTAL OUT =           0.5000

            IN - OUT =       3.9933E-11              IN - OUT =      -2.4153E-10

 PERCENT DISCREPANCY =           0.00     PERCENT DISCREPANCY =          -0.00






          TIME SUMMARY AT END OF TIME STEP         5 IN STRESS PERIOD        10
                    SECONDS     MINUTES      HOURS       DAYS        YEARS
                    -----------------------------------------------------------
   TIME STEP LENGTH 2.07051E+05  3450.8      57.514      2.3964     6.56105E-03
 STRESS PERIOD TIME 7.43051E+05  12384.      206.40      8.6001     2.35459E-02
         TOTAL TIME 2.40710E+07 4.01184E+05  6686.4      278.60     0.76277    
1
 -------------------------------------------------------------------------------------
 
 SOLVING FOR HEAD 

 Outer-Iteration  Inner-Iteration  Backtracking  Number of        Incoming       Outgoing  Maximum HeadChange      Maximum Head Change
     Number           Count           Flag       Backtracks       Residual       Residual           Value              Location
        1                             0             0          0.397627E-01     0.397627E-01
        1                6                                                                       -0.138528                   400           GWF-node number
        1                6                                                                       -0.129943                     3           CLN-node number
        2                             0             0          0.162785E-14     0.162785E-14
        2                1                                                                        0.182971E-07               401           GWF-node number
        2                1                                                                        0.202392E-07                 3           CLN-node number
     2 CALLS TO SPARSE MATRIX SOLVER PACKAGE  IN FLOW TIME STEP       6 STRESS PERIOD      10

 TOTAL OF       2OUTER ITERATIONS
  MAXIMUM CHANGE FOR EACH ITERATION:
   MAX. CHANGE        NODE  MAX. CHANGE        NODE  MAX. CHANGE        NODE  MAX. CHANGE        NODE  MAX. CHANGE        NODE
 ------------------------------------------------------------------------------------------------------------------------------------
  -0.13853    ,        400  0.18297E-07,        401

  MAXIMUM CHANGE FOR CLN NODE AT EACH ITERATION:
   MAX. CHANGE    CLN-CELL  MAX. CHANGE    CLN-CELL  MAX. CHANGE    CLN-CELL  MAX. CHANGE    CLN-CELL  MAX. CHANGE    CLN-CELL
 ------------------------------------------------------------------------------------------------------------------------------------
  -0.12994    ,          3  0.20239E-07,          3

 HEAD/DRAWDOWN PRINTOUT FLAG = 1     TOTAL BUDGET PRINTOUT FLAG = 1
 CELL-BY-CELL FLOW TERM FLAG = 1
 CONCENTRATION PRINTOUT FLAG = 1

 OUTPUT FLAGS FOR ALL LAYERS ARE THE SAME:
   HEAD    DRAWDOWN  HEAD  DRAWDOWN    CONC    CONC
 PRINTOUT  PRINTOUT  SAVE    SAVE    PRINTOUT  SAVE
 ---------------------------------------------------
     0         0       1       1       0       1
 UBUDSVU SAVING "         STORAGE" ON UNIT  50 AT TIME STEP      6, STRESS PERIOD     10
 UBUDSV SAVING "     CLN STORAGE" ON UNIT 144 AT TIME STEP      6, STRESS PERIOD      10
 UBUDSVU SAVING "   CONSTANT HEAD" ON UNIT  50 AT TIME STEP      6, STRESS PERIOD     10
 UBUDSVU SAVING "   FLOW JA FACE " ON UNIT  50 AT TIME STEP      6, STRESS PERIOD     10
 UBUDSVU SAVING "             CLN" ON UNIT  50 AT TIME STEP      6, STRESS PERIOD     10
 UBUDSVU SAVING "  CLN CONST HEAD" ON UNIT 144 AT TIME STEP      6, STRESS PERIOD     10
 UBUDSVU SAVING "   FLOW CLN FACE" ON UNIT 144 AT TIME STEP      6, STRESS PERIOD     10
 UBUDSVU SAVING "             GWF" ON UNIT 144 AT TIME STEP      6, STRESS PERIOD     10
 UBUDSVU SAVING "           WELLS" ON UNIT  50 AT TIME STEP      6, STRESS PERIOD     10
 UBUDSVU SAVING "           WELLS" ON UNIT 144 AT TIME STEP      6, STRESS PERIOD     10

 HEAD WILL BE SAVED ON UNIT       30 AT END OF TIME STEP        6, STRESS PERIOD       10

 DRAWDOWN WILL BE SAVED ON UNIT   31 AT END OF TIME STEP   6, STRESS PERIOD   10

 CLN HEAD WILL BE SAVED ON UNIT   77 AT END OF TIME STEP   6, STRESS PERIOD   10
1
  VOLUMETRIC BUDGET FOR ENTIRE MODEL AT END OF TIME STEP       6 IN STRESS PERIOD      10
  ---------------------------------------------------------------------------------------

     CUMULATIVE VOLUMES      L**3       RATES FOR THIS TIME STEP      L**3/T
     ------------------                 ------------------------

           IN:                                      IN:
           ---                                      ---
             STORAGE =        1407.3791               STORAGE =           5.0000
         CLN STORAGE =           0.0000           CLN STORAGE =           0.0000
       CONSTANT HEAD =           0.0000         CONSTANT HEAD =           0.0000
      CLN CONST HEAD =           0.0000        CLN CONST HEAD =           0.0000
               WELLS =           0.0000                 WELLS =           0.0000

            TOTAL IN =        1407.3791              TOTAL IN =           5.0000

          OUT:                                     OUT:
          ----                                     ----
             STORAGE =           0.0000               STORAGE =           0.0000
         CLN STORAGE =           0.0000           CLN STORAGE =           0.0000
       CONSTANT HEAD =           0.0000         CONSTANT HEAD =           0.0000
      CLN CONST HEAD =           0.0000        CLN CONST HEAD =           0.0000
               WELLS =        1407.3791                 WELLS =           5.0000

           TOTAL OUT =        1407.3791             TOTAL OUT =           5.0000

            IN - OUT =       1.3840E-05              IN - OUT =       6.8765E-08

 PERCENT DISCREPANCY =           0.00     PERCENT DISCREPANCY =           0.00






          TIME SUMMARY AT END OF TIME STEP         6 IN STRESS PERIOD        10
                    SECONDS     MINUTES      HOURS       DAYS        YEARS
                    -----------------------------------------------------------
   TIME STEP LENGTH 2.48461E+05  4141.0      69.017      2.8757     7.87326E-03
 STRESS PERIOD TIME 9.91512E+05  16525.      275.42      11.476     3.14191E-02
         TOTAL TIME 2.43195E+07 4.05325E+05  6755.4      281.48     0.77064    
1
 ------------------------------------------------------------------------------------------------------------
 
 SOLVING FOR TRANSPORT 

 ------------------------------------------------------------------------------------------------------------------------
     1 CALLS TO SPARSE MATRIX SOLVER PACKAGE IN TRANSPORT TIME STEP       6 STRESS PERIOD      10 SPECIES  1

 TOTAL OF       1OUTER ITERATIONS
  MAXIMUM CHANGE FOR EACH ITERATION:
   MAX. CHANGE        NODE  MAX. CHANGE        NODE  MAX. CHANGE        NODE  MAX. CHANGE        NODE  MAX. CHANGE        NODE
 ------------------------------------------------------------------------------------------------------------------------------------
  -0.96666E-12,        191

  MAXIMUM CHANGE FOR CLN NODE AT EACH ITERATION:
   MAX. CHANGE    CLN-CELL  MAX. CHANGE    CLN-CELL  MAX. CHANGE    CLN-CELL  MAX. CHANGE    CLN-CELL  MAX. CHANGE    CLN-CELL
 ------------------------------------------------------------------------------------------------------------------------------------
   0.78612E-09,          2
     TRANSPORT SOLUTION COMPLETE FOR COMPONENT SPECIES NUMBER    1
     ------------------------------------------------------------
 UBUDSVU SAVING "    MASS STORAGE" ON UNIT 145 AT TIME STEP      6, STRESS PERIOD     10
 UBUDSVU SAVING "CLN MASS STORAGE" ON UNIT 145 AT TIME STEP      6, STRESS PERIOD     10
 UBUDSVU SAVING "CNST H MASS FLUX" ON UNIT 145 AT TIME STEP      6, STRESS PERIOD     10
 UBUDSVU SAVING "  WELL MASS FLUX" ON UNIT 145 AT TIME STEP      6, STRESS PERIOD     10

 TRANSPORT SOLUTION COMPLETE FOR ALL SPECIES, SORTING OUTPUT FOR CONCENTRATIONS AND MASS BALANCE
 ----------------------------------------------------------------------------------------------------
     TRANSPORT OUTPUT FOR COMPONENT SPECIES NUMBER    1
     ------------------------------------------------------------

 CONC WILL BE SAVED ON UNIT  132 AT END OF TIME STEP        6, STRESS PERIOD       10

 CLN CONC WILL BE SAVED ON UNIT  188 AT END OF TIME STEP   6, STRESS PERIOD   10
1
  VOLUMETRIC BUDGET FOR ENTIRE MODEL AT END OF TIME STEP       6 IN STRESS PERIOD      10
  ---------------------------------------------------------------------------------------

     CUMULATIVE VOLUMES      L**3       RATES FOR THIS TIME STEP      L**3/T
     ------------------                 ------------------------

           IN:                                      IN:
           ---                                      ---
        MASS STORAGE =         140.7379          MASS STORAGE =           0.5000
    CNST H MASS FLUX =           0.0000      CNST H MASS FLUX =           0.0000
      WELL MASS FLUX =           0.0000        WELL MASS FLUX =           0.0000

            TOTAL IN =         140.7379              TOTAL IN =           0.5000

          OUT:                                     OUT:
          ----                                     ----
        MASS STORAGE =           0.2827          MASS STORAGE =       7.9290E-11
    CNST H MASS FLUX =           0.0000      CNST H MASS FLUX =           0.0000
      WELL MASS FLUX =         140.4552        WELL MASS FLUX =           0.5000

           TOTAL OUT =         140.7379             TOTAL OUT =           0.5000

            IN - OUT =       3.9677E-11              IN - OUT =      -7.9290E-11

 PERCENT DISCREPANCY =           0.00     PERCENT DISCREPANCY =          -0.00






          TIME SUMMARY AT END OF TIME STEP         6 IN STRESS PERIOD        10
                    SECONDS     MINUTES      HOURS       DAYS        YEARS
                    -----------------------------------------------------------
   TIME STEP LENGTH 2.48461E+05  4141.0      69.017      2.8757     7.87326E-03
 STRESS PERIOD TIME 9.91512E+05  16525.      275.42      11.476     3.14191E-02
         TOTAL TIME 2.43195E+07 4.05325E+05  6755.4      281.48     0.77064    
1
 -------------------------------------------------------------------------------------
 
 SOLVING FOR HEAD 

 Outer-Iteration  Inner-Iteration  Backtracking  Number of        Incoming       Outgoing  Maximum HeadChange      Maximum Head Change
     Number           Count           Flag       Backtracks       Residual       Residual           Value              Location
        1                             0             0          0.396859E-01     0.396859E-01
        1                6                                                                       -0.165964                   400           GWF-node number
        1                6                                                                       -0.155692                     1           CLN-node number
        2                             0             0          0.458309E-14     0.458309E-14
        2                1                                                                        0.571793E-07               401           GWF-node number
        2                1                                                                        0.177859E-07                 2           CLN-node number
     2 CALLS TO SPARSE MATRIX SOLVER PACKAGE  IN FLOW TIME STEP       7 STRESS PERIOD      10

 TOTAL OF       2OUTER ITERATIONS
  MAXIMUM CHANGE FOR EACH ITERATION:
   MAX. CHANGE        NODE  MAX. CHANGE        NODE  MAX. CHANGE        NODE  MAX. CHANGE        NODE  MAX. CHANGE        NODE
 ------------------------------------------------------------------------------------------------------------------------------------
  -0.16596    ,        400  0.57179E-07,        401

  MAXIMUM CHANGE FOR CLN NODE AT EACH ITERATION:
   MAX. CHANGE    CLN-CELL  MAX. CHANGE    CLN-CELL  MAX. CHANGE    CLN-CELL  MAX. CHANGE    CLN-CELL  MAX. CHANGE    CLN-CELL
 ------------------------------------------------------------------------------------------------------------------------------------
  -0.15569    ,          1  0.17786E-07,          2

 HEAD/DRAWDOWN PRINTOUT FLAG = 1     TOTAL BUDGET PRINTOUT FLAG = 1
 CELL-BY-CELL FLOW TERM FLAG = 1
 CONCENTRATION PRINTOUT FLAG = 1

 OUTPUT FLAGS FOR ALL LAYERS ARE THE SAME:
   HEAD    DRAWDOWN  HEAD  DRAWDOWN    CONC    CONC
 PRINTOUT  PRINTOUT  SAVE    SAVE    PRINTOUT  SAVE
 ---------------------------------------------------
     0         0       1       1       0       1
 UBUDSVU SAVING "         STORAGE" ON UNIT  50 AT TIME STEP      7, STRESS PERIOD     10
 UBUDSV SAVING "     CLN STORAGE" ON UNIT 144 AT TIME STEP      7, STRESS PERIOD      10
 UBUDSVU SAVING "   CONSTANT HEAD" ON UNIT  50 AT TIME STEP      7, STRESS PERIOD     10
 UBUDSVU SAVING "   FLOW JA FACE " ON UNIT  50 AT TIME STEP      7, STRESS PERIOD     10
 UBUDSVU SAVING "             CLN" ON UNIT  50 AT TIME STEP      7, STRESS PERIOD     10
 UBUDSVU SAVING "  CLN CONST HEAD" ON UNIT 144 AT TIME STEP      7, STRESS PERIOD     10
 UBUDSVU SAVING "   FLOW CLN FACE" ON UNIT 144 AT TIME STEP      7, STRESS PERIOD     10
 UBUDSVU SAVING "             GWF" ON UNIT 144 AT TIME STEP      7, STRESS PERIOD     10
 UBUDSVU SAVING "           WELLS" ON UNIT  50 AT TIME STEP      7, STRESS PERIOD     10
 UBUDSVU SAVING "           WELLS" ON UNIT 144 AT TIME STEP      7, STRESS PERIOD     10

 HEAD WILL BE SAVED ON UNIT       30 AT END OF TIME STEP        7, STRESS PERIOD       10

 DRAWDOWN WILL BE SAVED ON UNIT   31 AT END OF TIME STEP   7, STRESS PERIOD   10

 CLN HEAD WILL BE SAVED ON UNIT   77 AT END OF TIME STEP   7, STRESS PERIOD   10
1
  VOLUMETRIC BUDGET FOR ENTIRE MODEL AT END OF TIME STEP       7 IN STRESS PERIOD      10
  ---------------------------------------------------------------------------------------

     CUMULATIVE VOLUMES      L**3       RATES FOR THIS TIME STEP      L**3/T
     ------------------                 ------------------------

           IN:                                      IN:
           ---                                      ---
             STORAGE =        1424.6334               STORAGE =           5.0000
         CLN STORAGE =           0.0000           CLN STORAGE =           0.0000
       CONSTANT HEAD =           0.0000         CONSTANT HEAD =           0.0000
      CLN CONST HEAD =           0.0000        CLN CONST HEAD =           0.0000
               WELLS =           0.0000                 WELLS =           0.0000

            TOTAL IN =        1424.6334              TOTAL IN =           5.0000

          OUT:                                     OUT:
          ----                                     ----
             STORAGE =           0.0000               STORAGE =           0.0000
         CLN STORAGE =           0.0000           CLN STORAGE =           0.0000
       CONSTANT HEAD =           0.0000         CONSTANT HEAD =           0.0000
      CLN CONST HEAD =           0.0000        CLN CONST HEAD =           0.0000
               WELLS =        1424.6334                 WELLS =           5.0000

           TOTAL OUT =        1424.6334             TOTAL OUT =           5.0000

            IN - OUT =       1.4051E-05              IN - OUT =       6.1332E-08

 PERCENT DISCREPANCY =           0.00     PERCENT DISCREPANCY =           0.00






          TIME SUMMARY AT END OF TIME STEP         7 IN STRESS PERIOD        10
                    SECONDS     MINUTES      HOURS       DAYS        YEARS
                    -----------------------------------------------------------
   TIME STEP LENGTH 2.98153E+05  4969.2      82.820      3.4509     9.44791E-03
 STRESS PERIOD TIME 1.28967E+06  21494.      358.24      14.927     4.08670E-02
         TOTAL TIME 2.46177E+07 4.10294E+05  6838.2      284.93     0.78009    
1
 ------------------------------------------------------------------------------------------------------------
 
 SOLVING FOR TRANSPORT 

 ------------------------------------------------------------------------------------------------------------------------
     1 CALLS TO SPARSE MATRIX SOLVER PACKAGE IN TRANSPORT TIME STEP       7 STRESS PERIOD      10 SPECIES  1

 TOTAL OF       1OUTER ITERATIONS
  MAXIMUM CHANGE FOR EACH ITERATION:
   MAX. CHANGE        NODE  MAX. CHANGE        NODE  MAX. CHANGE        NODE  MAX. CHANGE        NODE  MAX. CHANGE        NODE
 ------------------------------------------------------------------------------------------------------------------------------------
  -0.15548E-11,        191

  MAXIMUM CHANGE FOR CLN NODE AT EACH ITERATION:
   MAX. CHANGE    CLN-CELL  MAX. CHANGE    CLN-CELL  MAX. CHANGE    CLN-CELL  MAX. CHANGE    CLN-CELL  MAX. CHANGE    CLN-CELL
 ------------------------------------------------------------------------------------------------------------------------------------
  -0.56016E-09,          2
     TRANSPORT SOLUTION COMPLETE FOR COMPONENT SPECIES NUMBER    1
     ------------------------------------------------------------
 UBUDSVU SAVING "    MASS STORAGE" ON UNIT 145 AT TIME STEP      7, STRESS PERIOD     10
 UBUDSVU SAVING "CLN MASS STORAGE" ON UNIT 145 AT TIME STEP      7, STRESS PERIOD     10
 UBUDSVU SAVING "CNST H MASS FLUX" ON UNIT 145 AT TIME STEP      7, STRESS PERIOD     10
 UBUDSVU SAVING "  WELL MASS FLUX" ON UNIT 145 AT TIME STEP      7, STRESS PERIOD     10

 TRANSPORT SOLUTION COMPLETE FOR ALL SPECIES, SORTING OUTPUT FOR CONCENTRATIONS AND MASS BALANCE
 ----------------------------------------------------------------------------------------------------
     TRANSPORT OUTPUT FOR COMPONENT SPECIES NUMBER    1
     ------------------------------------------------------------

 CONC WILL BE SAVED ON UNIT  132 AT END OF TIME STEP        7, STRESS PERIOD       10

 CLN CONC WILL BE SAVED ON UNIT  188 AT END OF TIME STEP   7, STRESS PERIOD   10
1
  VOLUMETRIC BUDGET FOR ENTIRE MODEL AT END OF TIME STEP       7 IN STRESS PERIOD      10
  ---------------------------------------------------------------------------------------

     CUMULATIVE VOLUMES      L**3       RATES FOR THIS TIME STEP      L**3/T
     ------------------                 ------------------------

           IN:                                      IN:
           ---                                      ---
        MASS STORAGE =         142.4633          MASS STORAGE =           0.5000
    CNST H MASS FLUX =           0.0000      CNST H MASS FLUX =           0.0000
      WELL MASS FLUX =           0.0000        WELL MASS FLUX =           0.0000

            TOTAL IN =         142.4633              TOTAL IN =           0.5000

          OUT:                                     OUT:
          ----                                     ----
        MASS STORAGE =           0.2827          MASS STORAGE =       9.8379E-11
    CNST H MASS FLUX =           0.0000      CNST H MASS FLUX =           0.0000
      WELL MASS FLUX =         142.1806        WELL MASS FLUX =           0.5000

           TOTAL OUT =         142.4633             TOTAL OUT =           0.5000

            IN - OUT =       3.8909E-11              IN - OUT =      -9.8379E-11

 PERCENT DISCREPANCY =           0.00     PERCENT DISCREPANCY =          -0.00






          TIME SUMMARY AT END OF TIME STEP         7 IN STRESS PERIOD        10
                    SECONDS     MINUTES      HOURS       DAYS        YEARS
                    -----------------------------------------------------------
   TIME STEP LENGTH 2.98153E+05  4969.2      82.820      3.4509     9.44791E-03
 STRESS PERIOD TIME 1.28967E+06  21494.      358.24      14.927     4.08670E-02
         TOTAL TIME 2.46177E+07 4.10294E+05  6838.2      284.93     0.78009    
1
 -------------------------------------------------------------------------------------
 
 SOLVING FOR HEAD 

 Outer-Iteration  Inner-Iteration  Backtracking  Number of        Incoming       Outgoing  Maximum HeadChange      Maximum Head Change
     Number           Count           Flag       Backtracks       Residual       Residual           Value              Location
        1                             0             0          0.395947E-01     0.395947E-01
        1                6                                                                       -0.198769                   400           GWF-node number
        1                6                                                                       -0.186487                     3           CLN-node number
        2                             0             0          0.134627E-13     0.134627E-13
        2                1                                                                        0.156537E-06               401           GWF-node number
        2                1                                                                        0.197883E-06                 3           CLN-node number
     2 CALLS TO SPARSE MATRIX SOLVER PACKAGE  IN FLOW TIME STEP       8 STRESS PERIOD      10

 TOTAL OF       2OUTER ITERATIONS
  MAXIMUM CHANGE FOR EACH ITERATION:
   MAX. CHANGE        NODE  MAX. CHANGE        NODE  MAX. CHANGE        NODE  MAX. CHANGE        NODE  MAX. CHANGE        NODE
 ------------------------------------------------------------------------------------------------------------------------------------
  -0.19877    ,        400  0.15654E-06,        401

  MAXIMUM CHANGE FOR CLN NODE AT EACH ITERATION:
   MAX. CHANGE    CLN-CELL  MAX. CHANGE    CLN-CELL  MAX. CHANGE    CLN-CELL  MAX. CHANGE    CLN-CELL  MAX. CHANGE    CLN-CELL
 ------------------------------------------------------------------------------------------------------------------------------------
  -0.18649    ,          3  0.19788E-06,          3

 HEAD/DRAWDOWN PRINTOUT FLAG = 1     TOTAL BUDGET PRINTOUT FLAG = 1
 CELL-BY-CELL FLOW TERM FLAG = 1
 CONCENTRATION PRINTOUT FLAG = 1

 OUTPUT FLAGS FOR ALL LAYERS ARE THE SAME:
   HEAD    DRAWDOWN  HEAD  DRAWDOWN    CONC    CONC
 PRINTOUT  PRINTOUT  SAVE    SAVE    PRINTOUT  SAVE
 ---------------------------------------------------
     0         0       1       1       0       1
 UBUDSVU SAVING "         STORAGE" ON UNIT  50 AT TIME STEP      8, STRESS PERIOD     10
 UBUDSV SAVING "     CLN STORAGE" ON UNIT 144 AT TIME STEP      8, STRESS PERIOD      10
 UBUDSVU SAVING "   CONSTANT HEAD" ON UNIT  50 AT TIME STEP      8, STRESS PERIOD     10
 UBUDSVU SAVING "   FLOW JA FACE " ON UNIT  50 AT TIME STEP      8, STRESS PERIOD     10
 UBUDSVU SAVING "             CLN" ON UNIT  50 AT TIME STEP      8, STRESS PERIOD     10
 UBUDSVU SAVING "  CLN CONST HEAD" ON UNIT 144 AT TIME STEP      8, STRESS PERIOD     10
 UBUDSVU SAVING "   FLOW CLN FACE" ON UNIT 144 AT TIME STEP      8, STRESS PERIOD     10
 UBUDSVU SAVING "             GWF" ON UNIT 144 AT TIME STEP      8, STRESS PERIOD     10
 UBUDSVU SAVING "           WELLS" ON UNIT  50 AT TIME STEP      8, STRESS PERIOD     10
 UBUDSVU SAVING "           WELLS" ON UNIT 144 AT TIME STEP      8, STRESS PERIOD     10

 HEAD WILL BE SAVED ON UNIT       30 AT END OF TIME STEP        8, STRESS PERIOD       10

 DRAWDOWN WILL BE SAVED ON UNIT   31 AT END OF TIME STEP   8, STRESS PERIOD   10

 CLN HEAD WILL BE SAVED ON UNIT   77 AT END OF TIME STEP   8, STRESS PERIOD   10
1
  VOLUMETRIC BUDGET FOR ENTIRE MODEL AT END OF TIME STEP       8 IN STRESS PERIOD      10
  ---------------------------------------------------------------------------------------

     CUMULATIVE VOLUMES      L**3       RATES FOR THIS TIME STEP      L**3/T
     ------------------                 ------------------------

           IN:                                      IN:
           ---                                      ---
             STORAGE =        1445.3385               STORAGE =           5.0000
         CLN STORAGE =           0.0000           CLN STORAGE =           0.0000
       CONSTANT HEAD =           0.0000         CONSTANT HEAD =           0.0000
      CLN CONST HEAD =           0.0000        CLN CONST HEAD =           0.0000
               WELLS =           0.0000                 WELLS =           0.0000

            TOTAL IN =        1445.3385              TOTAL IN =           5.0000

          OUT:                                     OUT:
          ----                                     ----
             STORAGE =           0.0000               STORAGE =           0.0000
         CLN STORAGE =           0.0000           CLN STORAGE =           0.0000
       CONSTANT HEAD =           0.0000         CONSTANT HEAD =           0.0000
      CLN CONST HEAD =           0.0000        CLN CONST HEAD =           0.0000
               WELLS =        1445.3385                 WELLS =           5.0000

           TOTAL OUT =        1445.3385             TOTAL OUT =           5.0000

            IN - OUT =       1.4337E-05              IN - OUT =       6.9043E-08

 PERCENT DISCREPANCY =           0.00     PERCENT DISCREPANCY =           0.00






          TIME SUMMARY AT END OF TIME STEP         8 IN STRESS PERIOD        10
                    SECONDS     MINUTES      HOURS       DAYS        YEARS
                    -----------------------------------------------------------
   TIME STEP LENGTH 3.57784E+05  5963.1      99.384      4.1410     1.13375E-02
 STRESS PERIOD TIME 1.64745E+06  27457.      457.62      19.068     5.22045E-02
         TOTAL TIME 2.49754E+07 4.16257E+05  6937.6      289.07     0.79142    
1
 ------------------------------------------------------------------------------------------------------------
 
 SOLVING FOR TRANSPORT 

 ------------------------------------------------------------------------------------------------------------------------
     1 CALLS TO SPARSE MATRIX SOLVER PACKAGE IN TRANSPORT TIME STEP       8 STRESS PERIOD      10 SPECIES  1

 TOTAL OF       1OUTER ITERATIONS
  MAXIMUM CHANGE FOR EACH ITERATION:
   MAX. CHANGE        NODE  MAX. CHANGE        NODE  MAX. CHANGE        NODE  MAX. CHANGE        NODE  MAX. CHANGE        NODE
 ------------------------------------------------------------------------------------------------------------------------------------
   0.28677E-10,        191

  MAXIMUM CHANGE FOR CLN NODE AT EACH ITERATION:
   MAX. CHANGE    CLN-CELL  MAX. CHANGE    CLN-CELL  MAX. CHANGE    CLN-CELL  MAX. CHANGE    CLN-CELL  MAX. CHANGE    CLN-CELL
 ------------------------------------------------------------------------------------------------------------------------------------
  -0.73513E-09,          1
     TRANSPORT SOLUTION COMPLETE FOR COMPONENT SPECIES NUMBER    1
     ------------------------------------------------------------
 UBUDSVU SAVING "    MASS STORAGE" ON UNIT 145 AT TIME STEP      8, STRESS PERIOD     10
 UBUDSVU SAVING "CLN MASS STORAGE" ON UNIT 145 AT TIME STEP      8, STRESS PERIOD     10
 UBUDSVU SAVING "CNST H MASS FLUX" ON UNIT 145 AT TIME STEP      8, STRESS PERIOD     10
 UBUDSVU SAVING "  WELL MASS FLUX" ON UNIT 145 AT TIME STEP      8, STRESS PERIOD     10

 TRANSPORT SOLUTION COMPLETE FOR ALL SPECIES, SORTING OUTPUT FOR CONCENTRATIONS AND MASS BALANCE
 ----------------------------------------------------------------------------------------------------
     TRANSPORT OUTPUT FOR COMPONENT SPECIES NUMBER    1
     ------------------------------------------------------------

 CONC WILL BE SAVED ON UNIT  132 AT END OF TIME STEP        8, STRESS PERIOD       10

 CLN CONC WILL BE SAVED ON UNIT  188 AT END OF TIME STEP   8, STRESS PERIOD   10
1
  VOLUMETRIC BUDGET FOR ENTIRE MODEL AT END OF TIME STEP       8 IN STRESS PERIOD      10
  ---------------------------------------------------------------------------------------

     CUMULATIVE VOLUMES      L**3       RATES FOR THIS TIME STEP      L**3/T
     ------------------                 ------------------------

           IN:                                      IN:
           ---                                      ---
        MASS STORAGE =         144.5339          MASS STORAGE =           0.5000
    CNST H MASS FLUX =           0.0000      CNST H MASS FLUX =           0.0000
      WELL MASS FLUX =           0.0000        WELL MASS FLUX =           0.0000

            TOTAL IN =         144.5339              TOTAL IN =           0.5000

          OUT:                                     OUT:
          ----                                     ----
        MASS STORAGE =           0.2827          MASS STORAGE =           0.0000
    CNST H MASS FLUX =           0.0000      CNST H MASS FLUX =           0.0000
      WELL MASS FLUX =         144.2511        WELL MASS FLUX =           0.5000

           TOTAL OUT =         144.5339             TOTAL OUT =           0.5000

            IN - OUT =       5.9202E-11              IN - OUT =           0.0000

 PERCENT DISCREPANCY =           0.00     PERCENT DISCREPANCY =           0.00






          TIME SUMMARY AT END OF TIME STEP         8 IN STRESS PERIOD        10
                    SECONDS     MINUTES      HOURS       DAYS        YEARS
                    -----------------------------------------------------------
   TIME STEP LENGTH 3.57784E+05  5963.1      99.384      4.1410     1.13375E-02
 STRESS PERIOD TIME 1.64745E+06  27457.      457.62      19.068     5.22045E-02
         TOTAL TIME 2.49754E+07 4.16257E+05  6937.6      289.07     0.79142    
1
 -------------------------------------------------------------------------------------
 
 SOLVING FOR HEAD 

 Outer-Iteration  Inner-Iteration  Backtracking  Number of        Incoming       Outgoing  Maximum HeadChange      Maximum Head Change
     Number           Count           Flag       Backtracks       Residual       Residual           Value              Location
        1                             0             0          0.394864E-01     0.394864E-01
        1                6                                                                       -0.237968                   400           GWF-node number
        1                6                                                                       -0.223294                     3           CLN-node number
        2                             0             0          0.597027E-13     0.597027E-13
        2                1                                                                        0.414368E-06               417           GWF-node number
        2                1                                                                        0.504728E-06                 3           CLN-node number
     2 CALLS TO SPARSE MATRIX SOLVER PACKAGE  IN FLOW TIME STEP       9 STRESS PERIOD      10

 TOTAL OF       2OUTER ITERATIONS
  MAXIMUM CHANGE FOR EACH ITERATION:
   MAX. CHANGE        NODE  MAX. CHANGE        NODE  MAX. CHANGE        NODE  MAX. CHANGE        NODE  MAX. CHANGE        NODE
 ------------------------------------------------------------------------------------------------------------------------------------
  -0.23797    ,        400  0.41437E-06,        417

  MAXIMUM CHANGE FOR CLN NODE AT EACH ITERATION:
   MAX. CHANGE    CLN-CELL  MAX. CHANGE    CLN-CELL  MAX. CHANGE    CLN-CELL  MAX. CHANGE    CLN-CELL  MAX. CHANGE    CLN-CELL
 ------------------------------------------------------------------------------------------------------------------------------------
  -0.22329    ,          3  0.50473E-06,          3

 HEAD/DRAWDOWN PRINTOUT FLAG = 1     TOTAL BUDGET PRINTOUT FLAG = 1
 CELL-BY-CELL FLOW TERM FLAG = 1
 CONCENTRATION PRINTOUT FLAG = 1

 OUTPUT FLAGS FOR ALL LAYERS ARE THE SAME:
   HEAD    DRAWDOWN  HEAD  DRAWDOWN    CONC    CONC
 PRINTOUT  PRINTOUT  SAVE    SAVE    PRINTOUT  SAVE
 ---------------------------------------------------
     0         0       1       1       0       1
 UBUDSVU SAVING "         STORAGE" ON UNIT  50 AT TIME STEP      9, STRESS PERIOD     10
 UBUDSV SAVING "     CLN STORAGE" ON UNIT 144 AT TIME STEP      9, STRESS PERIOD      10
 UBUDSVU SAVING "   CONSTANT HEAD" ON UNIT  50 AT TIME STEP      9, STRESS PERIOD     10
 UBUDSVU SAVING "   FLOW JA FACE " ON UNIT  50 AT TIME STEP      9, STRESS PERIOD     10
 UBUDSVU SAVING "             CLN" ON UNIT  50 AT TIME STEP      9, STRESS PERIOD     10
 UBUDSVU SAVING "  CLN CONST HEAD" ON UNIT 144 AT TIME STEP      9, STRESS PERIOD     10
 UBUDSVU SAVING "   FLOW CLN FACE" ON UNIT 144 AT TIME STEP      9, STRESS PERIOD     10
 UBUDSVU SAVING "             GWF" ON UNIT 144 AT TIME STEP      9, STRESS PERIOD     10
 UBUDSVU SAVING "           WELLS" ON UNIT  50 AT TIME STEP      9, STRESS PERIOD     10
 UBUDSVU SAVING "           WELLS" ON UNIT 144 AT TIME STEP      9, STRESS PERIOD     10

 HEAD WILL BE SAVED ON UNIT       30 AT END OF TIME STEP        9, STRESS PERIOD       10

 DRAWDOWN WILL BE SAVED ON UNIT   31 AT END OF TIME STEP   9, STRESS PERIOD   10

 CLN HEAD WILL BE SAVED ON UNIT   77 AT END OF TIME STEP   9, STRESS PERIOD   10
1
  VOLUMETRIC BUDGET FOR ENTIRE MODEL AT END OF TIME STEP       9 IN STRESS PERIOD      10
  ---------------------------------------------------------------------------------------

     CUMULATIVE VOLUMES      L**3       RATES FOR THIS TIME STEP      L**3/T
     ------------------                 ------------------------

           IN:                                      IN:
           ---                                      ---
             STORAGE =        1470.1846               STORAGE =           5.0000
         CLN STORAGE =           0.0000           CLN STORAGE =           0.0000
       CONSTANT HEAD =           0.0000         CONSTANT HEAD =           0.0000
      CLN CONST HEAD =           0.0000        CLN CONST HEAD =           0.0000
               WELLS =           0.0000                 WELLS =           0.0000

            TOTAL IN =        1470.1846              TOTAL IN =           5.0000

          OUT:                                     OUT:
          ----                                     ----
             STORAGE =           0.0000               STORAGE =           0.0000
         CLN STORAGE =           0.0000           CLN STORAGE =           0.0000
       CONSTANT HEAD =           0.0000         CONSTANT HEAD =           0.0000
      CLN CONST HEAD =           0.0000        CLN CONST HEAD =           0.0000
               WELLS =        1470.1846                 WELLS =           5.0000

           TOTAL OUT =        1470.1846             TOTAL OUT =           5.0000

            IN - OUT =       1.4874E-05              IN - OUT =       1.0796E-07

 PERCENT DISCREPANCY =           0.00     PERCENT DISCREPANCY =           0.00






          TIME SUMMARY AT END OF TIME STEP         9 IN STRESS PERIOD        10
                    SECONDS     MINUTES      HOURS       DAYS        YEARS
                    -----------------------------------------------------------
   TIME STEP LENGTH 4.29341E+05  7155.7      119.26      4.9692     1.36050E-02
 STRESS PERIOD TIME 2.07679E+06  34613.      576.89      24.037     6.58095E-02
         TOTAL TIME 2.54048E+07 4.23413E+05  7056.9      294.04     0.80503    
1
 ------------------------------------------------------------------------------------------------------------
 
 SOLVING FOR TRANSPORT 

 ------------------------------------------------------------------------------------------------------------------------
     1 CALLS TO SPARSE MATRIX SOLVER PACKAGE IN TRANSPORT TIME STEP       9 STRESS PERIOD      10 SPECIES  1

 TOTAL OF       1OUTER ITERATIONS
  MAXIMUM CHANGE FOR EACH ITERATION:
   MAX. CHANGE        NODE  MAX. CHANGE        NODE  MAX. CHANGE        NODE  MAX. CHANGE        NODE  MAX. CHANGE        NODE
 ------------------------------------------------------------------------------------------------------------------------------------
   0.96363E-10,        191

  MAXIMUM CHANGE FOR CLN NODE AT EACH ITERATION:
   MAX. CHANGE    CLN-CELL  MAX. CHANGE    CLN-CELL  MAX. CHANGE    CLN-CELL  MAX. CHANGE    CLN-CELL  MAX. CHANGE    CLN-CELL
 ------------------------------------------------------------------------------------------------------------------------------------
  -0.13591E-08,          2
     TRANSPORT SOLUTION COMPLETE FOR COMPONENT SPECIES NUMBER    1
     ------------------------------------------------------------
 UBUDSVU SAVING "    MASS STORAGE" ON UNIT 145 AT TIME STEP      9, STRESS PERIOD     10
 UBUDSVU SAVING "CLN MASS STORAGE" ON UNIT 145 AT TIME STEP      9, STRESS PERIOD     10
 UBUDSVU SAVING "CNST H MASS FLUX" ON UNIT 145 AT TIME STEP      9, STRESS PERIOD     10
 UBUDSVU SAVING "  WELL MASS FLUX" ON UNIT 145 AT TIME STEP      9, STRESS PERIOD     10

 TRANSPORT SOLUTION COMPLETE FOR ALL SPECIES, SORTING OUTPUT FOR CONCENTRATIONS AND MASS BALANCE
 ----------------------------------------------------------------------------------------------------
     TRANSPORT OUTPUT FOR COMPONENT SPECIES NUMBER    1
     ------------------------------------------------------------

 CONC WILL BE SAVED ON UNIT  132 AT END OF TIME STEP        9, STRESS PERIOD       10

 CLN CONC WILL BE SAVED ON UNIT  188 AT END OF TIME STEP   9, STRESS PERIOD   10
1
  VOLUMETRIC BUDGET FOR ENTIRE MODEL AT END OF TIME STEP       9 IN STRESS PERIOD      10
  ---------------------------------------------------------------------------------------

     CUMULATIVE VOLUMES      L**3       RATES FOR THIS TIME STEP      L**3/T
     ------------------                 ------------------------

           IN:                                      IN:
           ---                                      ---
        MASS STORAGE =         147.0185          MASS STORAGE =           0.5000
    CNST H MASS FLUX =           0.0000      CNST H MASS FLUX =           0.0000
      WELL MASS FLUX =           0.0000        WELL MASS FLUX =           0.0000

            TOTAL IN =         147.0185              TOTAL IN =           0.5000

          OUT:                                     OUT:
          ----                                     ----
        MASS STORAGE =           0.2827          MASS STORAGE =           0.0000
    CNST H MASS FLUX =           0.0000      CNST H MASS FLUX =           0.0000
      WELL MASS FLUX =         146.7357        WELL MASS FLUX =           0.5000

           TOTAL OUT =         147.0185             TOTAL OUT =           0.5000

            IN - OUT =       1.7829E-10              IN - OUT =           0.0000

 PERCENT DISCREPANCY =           0.00     PERCENT DISCREPANCY =           0.00






          TIME SUMMARY AT END OF TIME STEP         9 IN STRESS PERIOD        10
                    SECONDS     MINUTES      HOURS       DAYS        YEARS
                    -----------------------------------------------------------
   TIME STEP LENGTH 4.29341E+05  7155.7      119.26      4.9692     1.36050E-02
 STRESS PERIOD TIME 2.07679E+06  34613.      576.89      24.037     6.58095E-02
         TOTAL TIME 2.54048E+07 4.23413E+05  7056.9      294.04     0.80503    
1
 -------------------------------------------------------------------------------------
 
 SOLVING FOR HEAD 

 Outer-Iteration  Inner-Iteration  Backtracking  Number of        Incoming       Outgoing  Maximum HeadChange      Maximum Head Change
     Number           Count           Flag       Backtracks       Residual       Residual           Value              Location
        1                             0             0          0.393582E-01     0.393582E-01
        1                7                                                                       -0.284766                   400           GWF-node number
        1                7                                                                       -0.267255                     1           CLN-node number
        2                             0             0          0.122029E-13     0.122029E-13
        2                1                                                                       -0.599853E-07               417           GWF-node number
        2                1                                                                       -0.160479E-06                 3           CLN-node number
     2 CALLS TO SPARSE MATRIX SOLVER PACKAGE  IN FLOW TIME STEP      10 STRESS PERIOD      10

 TOTAL OF       2OUTER ITERATIONS
  MAXIMUM CHANGE FOR EACH ITERATION:
   MAX. CHANGE        NODE  MAX. CHANGE        NODE  MAX. CHANGE        NODE  MAX. CHANGE        NODE  MAX. CHANGE        NODE
 ------------------------------------------------------------------------------------------------------------------------------------
  -0.28477    ,        400 -0.59985E-07,        417

  MAXIMUM CHANGE FOR CLN NODE AT EACH ITERATION:
   MAX. CHANGE    CLN-CELL  MAX. CHANGE    CLN-CELL  MAX. CHANGE    CLN-CELL  MAX. CHANGE    CLN-CELL  MAX. CHANGE    CLN-CELL
 ------------------------------------------------------------------------------------------------------------------------------------
  -0.26726    ,          1 -0.16048E-06,          3

 HEAD/DRAWDOWN PRINTOUT FLAG = 1     TOTAL BUDGET PRINTOUT FLAG = 1
 CELL-BY-CELL FLOW TERM FLAG = 1
 CONCENTRATION PRINTOUT FLAG = 1

 OUTPUT FLAGS FOR ALL LAYERS ARE THE SAME:
   HEAD    DRAWDOWN  HEAD  DRAWDOWN    CONC    CONC
 PRINTOUT  PRINTOUT  SAVE    SAVE    PRINTOUT  SAVE
 ---------------------------------------------------
     0         0       1       1       0       1
 UBUDSVU SAVING "         STORAGE" ON UNIT  50 AT TIME STEP     10, STRESS PERIOD     10
 UBUDSV SAVING "     CLN STORAGE" ON UNIT 144 AT TIME STEP     10, STRESS PERIOD      10
 UBUDSVU SAVING "   CONSTANT HEAD" ON UNIT  50 AT TIME STEP     10, STRESS PERIOD     10
 UBUDSVU SAVING "   FLOW JA FACE " ON UNIT  50 AT TIME STEP     10, STRESS PERIOD     10
 UBUDSVU SAVING "             CLN" ON UNIT  50 AT TIME STEP     10, STRESS PERIOD     10
 UBUDSVU SAVING "  CLN CONST HEAD" ON UNIT 144 AT TIME STEP     10, STRESS PERIOD     10
 UBUDSVU SAVING "   FLOW CLN FACE" ON UNIT 144 AT TIME STEP     10, STRESS PERIOD     10
 UBUDSVU SAVING "             GWF" ON UNIT 144 AT TIME STEP     10, STRESS PERIOD     10
 UBUDSVU SAVING "           WELLS" ON UNIT  50 AT TIME STEP     10, STRESS PERIOD     10
 UBUDSVU SAVING "           WELLS" ON UNIT 144 AT TIME STEP     10, STRESS PERIOD     10

 HEAD WILL BE SAVED ON UNIT       30 AT END OF TIME STEP       10, STRESS PERIOD       10

 DRAWDOWN WILL BE SAVED ON UNIT   31 AT END OF TIME STEP  10, STRESS PERIOD   10

 CLN HEAD WILL BE SAVED ON UNIT   77 AT END OF TIME STEP  10, STRESS PERIOD   10
1
  VOLUMETRIC BUDGET FOR ENTIRE MODEL AT END OF TIME STEP      10 IN STRESS PERIOD      10
  ---------------------------------------------------------------------------------------

     CUMULATIVE VOLUMES      L**3       RATES FOR THIS TIME STEP      L**3/T
     ------------------                 ------------------------

           IN:                                      IN:
           ---                                      ---
             STORAGE =        1500.0000               STORAGE =           5.0000
         CLN STORAGE =           0.0000           CLN STORAGE =           0.0000
       CONSTANT HEAD =           0.0000         CONSTANT HEAD =           0.0000
      CLN CONST HEAD =           0.0000        CLN CONST HEAD =           0.0000
               WELLS =           0.0000                 WELLS =           0.0000

            TOTAL IN =        1500.0000              TOTAL IN =           5.0000

          OUT:                                     OUT:
          ----                                     ----
             STORAGE =           0.0000               STORAGE =           0.0000
         CLN STORAGE =           0.0000           CLN STORAGE =           0.0000
       CONSTANT HEAD =           0.0000         CONSTANT HEAD =           0.0000
      CLN CONST HEAD =           0.0000        CLN CONST HEAD =           0.0000
               WELLS =        1499.9999                 WELLS =           5.0000

           TOTAL OUT =        1499.9999             TOTAL OUT =           5.0000

            IN - OUT =       1.4948E-05              IN - OUT =       1.2370E-08

 PERCENT DISCREPANCY =           0.00     PERCENT DISCREPANCY =           0.00






          TIME SUMMARY AT END OF TIME STEP        10 IN STRESS PERIOD        10
                    SECONDS     MINUTES      HOURS       DAYS        YEARS
                    -----------------------------------------------------------
   TIME STEP LENGTH 5.15209E+05  8586.8      143.11      5.9631     1.63260E-02
 STRESS PERIOD TIME 2.59200E+06  43200.      720.00      30.000     8.21355E-02
         TOTAL TIME 2.59200E+07 4.32000E+05  7200.0      300.00     0.82136    
1
 ------------------------------------------------------------------------------------------------------------
 
 SOLVING FOR TRANSPORT 

 ------------------------------------------------------------------------------------------------------------------------
     1 CALLS TO SPARSE MATRIX SOLVER PACKAGE IN TRANSPORT TIME STEP      10 STRESS PERIOD      10 SPECIES  1

 TOTAL OF       1OUTER ITERATIONS
  MAXIMUM CHANGE FOR EACH ITERATION:
   MAX. CHANGE        NODE  MAX. CHANGE        NODE  MAX. CHANGE        NODE  MAX. CHANGE        NODE  MAX. CHANGE        NODE
 ------------------------------------------------------------------------------------------------------------------------------------
  -0.50188E-10,        191

  MAXIMUM CHANGE FOR CLN NODE AT EACH ITERATION:
   MAX. CHANGE    CLN-CELL  MAX. CHANGE    CLN-CELL  MAX. CHANGE    CLN-CELL  MAX. CHANGE    CLN-CELL  MAX. CHANGE    CLN-CELL
 ------------------------------------------------------------------------------------------------------------------------------------
   0.14756E-08,          1
     TRANSPORT SOLUTION COMPLETE FOR COMPONENT SPECIES NUMBER    1
     ------------------------------------------------------------
 UBUDSVU SAVING "    MASS STORAGE" ON UNIT 145 AT TIME STEP     10, STRESS PERIOD     10
 UBUDSVU SAVING "CLN MASS STORAGE" ON UNIT 145 AT TIME STEP     10, STRESS PERIOD     10
 UBUDSVU SAVING "CNST H MASS FLUX" ON UNIT 145 AT TIME STEP     10, STRESS PERIOD     10
 UBUDSVU SAVING "  WELL MASS FLUX" ON UNIT 145 AT TIME STEP     10, STRESS PERIOD     10

 TRANSPORT SOLUTION COMPLETE FOR ALL SPECIES, SORTING OUTPUT FOR CONCENTRATIONS AND MASS BALANCE
 ----------------------------------------------------------------------------------------------------
     TRANSPORT OUTPUT FOR COMPONENT SPECIES NUMBER    1
     ------------------------------------------------------------

 CONC WILL BE SAVED ON UNIT  132 AT END OF TIME STEP       10, STRESS PERIOD       10

 CLN CONC WILL BE SAVED ON UNIT  188 AT END OF TIME STEP  10, STRESS PERIOD   10
1
  VOLUMETRIC BUDGET FOR ENTIRE MODEL AT END OF TIME STEP      10 IN STRESS PERIOD      10
  ---------------------------------------------------------------------------------------

     CUMULATIVE VOLUMES      L**3       RATES FOR THIS TIME STEP      L**3/T
     ------------------                 ------------------------

           IN:                                      IN:
           ---                                      ---
        MASS STORAGE =         150.0000          MASS STORAGE =           0.5000
    CNST H MASS FLUX =           0.0000      CNST H MASS FLUX =           0.0000
      WELL MASS FLUX =           0.0000        WELL MASS FLUX =           0.0000

            TOTAL IN =         150.0000              TOTAL IN =           0.5000

          OUT:                                     OUT:
          ----                                     ----
        MASS STORAGE =           0.2827          MASS STORAGE =       5.8341E-10
    CNST H MASS FLUX =           0.0000      CNST H MASS FLUX =           0.0000
      WELL MASS FLUX =         149.7173        WELL MASS FLUX =           0.5000

           TOTAL OUT =         150.0000             TOTAL OUT =           0.5000

            IN - OUT =       1.1721E-10              IN - OUT =      -5.8341E-10

 PERCENT DISCREPANCY =           0.00     PERCENT DISCREPANCY =          -0.00






          TIME SUMMARY AT END OF TIME STEP        10 IN STRESS PERIOD        10
                    SECONDS     MINUTES      HOURS       DAYS        YEARS
                    -----------------------------------------------------------
   TIME STEP LENGTH 5.15209E+05  8586.8      143.11      5.9631     1.63260E-02
 STRESS PERIOD TIME 2.59200E+06  43200.      720.00      30.000     8.21355E-02
         TOTAL TIME 2.59200E+07 4.32000E+05  7200.0      300.00     0.82136    
1
1
                            STRESS PERIOD NO.   11, LENGTH =   30.00000    
                            -----------------------------------------------

                              NUMBER OF TIME STEPS =        10

                               MULTIPLIER FOR DELT =     1.200

                            INITIAL TIME STEP SIZE =   1.155682    

 WEL -- WELL PACKAGE, VERSION 7, 5/2/2005 INPUT READ FROM UNIT   12

 WELL NO.  CLN-NODE       STRESS FACTOR         C01             
 ---------------------------------------------------------------
        1            3      -5.000           0.000           0.000    

      1 WELL 
 -------------------------------------------------------------------------------------
 
 SOLVING FOR HEAD 

 Outer-Iteration  Inner-Iteration  Backtracking  Number of        Incoming       Outgoing  Maximum HeadChange      Maximum Head Change
     Number           Count           Flag       Backtracks       Residual       Residual           Value              Location
        1                             0             0          0.392067E-01     0.392067E-01
        1                5                                                                       -0.551597E-01               400           GWF-node number
        1                5                                                                       -0.517697E-01                 3           CLN-node number
        2                             0             0          0.938820E-15     0.938820E-15
        2                1                                                                       -0.233600E-07               190           GWF-node number
        2                1                                                                       -0.639078E-07                 3           CLN-node number


     2 CALLS TO SPARSE MATRIX SOLVER PACKAGE  IN FLOW TIME STEP       1 STRESS PERIOD      11

 TOTAL OF       2OUTER ITERATIONS
  MAXIMUM CHANGE FOR EACH ITERATION:
   MAX. CHANGE        NODE  MAX. CHANGE        NODE  MAX. CHANGE        NODE  MAX. CHANGE        NODE  MAX. CHANGE        NODE
 ------------------------------------------------------------------------------------------------------------------------------------
  -0.55160E-01,        400 -0.23360E-07,        190

  MAXIMUM CHANGE FOR CLN NODE AT EACH ITERATION:
   MAX. CHANGE    CLN-CELL  MAX. CHANGE    CLN-CELL  MAX. CHANGE    CLN-CELL  MAX. CHANGE    CLN-CELL  MAX. CHANGE    CLN-CELL
 ------------------------------------------------------------------------------------------------------------------------------------
  -0.51770E-01,          3 -0.63908E-07,          3

 HEAD/DRAWDOWN PRINTOUT FLAG = 1     TOTAL BUDGET PRINTOUT FLAG = 1
 CELL-BY-CELL FLOW TERM FLAG = 1
 CONCENTRATION PRINTOUT FLAG = 1

 OUTPUT FLAGS FOR ALL LAYERS ARE THE SAME:
   HEAD    DRAWDOWN  HEAD  DRAWDOWN    CONC    CONC
 PRINTOUT  PRINTOUT  SAVE    SAVE    PRINTOUT  SAVE
 ---------------------------------------------------
     0         0       1       1       0       1
 UBUDSVU SAVING "         STORAGE" ON UNIT  50 AT TIME STEP      1, STRESS PERIOD     11
 UBUDSV SAVING "     CLN STORAGE" ON UNIT 144 AT TIME STEP      1, STRESS PERIOD      11
 UBUDSVU SAVING "   CONSTANT HEAD" ON UNIT  50 AT TIME STEP      1, STRESS PERIOD     11
 UBUDSVU SAVING "   FLOW JA FACE " ON UNIT  50 AT TIME STEP      1, STRESS PERIOD     11
 UBUDSVU SAVING "             CLN" ON UNIT  50 AT TIME STEP      1, STRESS PERIOD     11
 UBUDSVU SAVING "  CLN CONST HEAD" ON UNIT 144 AT TIME STEP      1, STRESS PERIOD     11
 UBUDSVU SAVING "   FLOW CLN FACE" ON UNIT 144 AT TIME STEP      1, STRESS PERIOD     11
 UBUDSVU SAVING "             GWF" ON UNIT 144 AT TIME STEP      1, STRESS PERIOD     11
 UBUDSVU SAVING "           WELLS" ON UNIT  50 AT TIME STEP      1, STRESS PERIOD     11
 UBUDSVU SAVING "           WELLS" ON UNIT 144 AT TIME STEP      1, STRESS PERIOD     11

 HEAD WILL BE SAVED ON UNIT       30 AT END OF TIME STEP        1, STRESS PERIOD       11

 DRAWDOWN WILL BE SAVED ON UNIT   31 AT END OF TIME STEP   1, STRESS PERIOD   11

 CLN HEAD WILL BE SAVED ON UNIT   77 AT END OF TIME STEP   1, STRESS PERIOD   11
1
  VOLUMETRIC BUDGET FOR ENTIRE MODEL AT END OF TIME STEP       1 IN STRESS PERIOD      11
  ---------------------------------------------------------------------------------------

     CUMULATIVE VOLUMES      L**3       RATES FOR THIS TIME STEP      L**3/T
     ------------------                 ------------------------

           IN:                                      IN:
           ---                                      ---
             STORAGE =        1505.7784               STORAGE =           5.0000
         CLN STORAGE =           0.0000           CLN STORAGE =           0.0000
       CONSTANT HEAD =           0.0000         CONSTANT HEAD =           0.0000
      CLN CONST HEAD =           0.0000        CLN CONST HEAD =           0.0000
               WELLS =           0.0000                 WELLS =           0.0000

            TOTAL IN =        1505.7784              TOTAL IN =           5.0000

          OUT:                                     OUT:
          ----                                     ----
             STORAGE =           0.0000               STORAGE =           0.0000
         CLN STORAGE =           0.0000           CLN STORAGE =           0.0000
       CONSTANT HEAD =           0.0000         CONSTANT HEAD =           0.0000
      CLN CONST HEAD =           0.0000        CLN CONST HEAD =           0.0000
               WELLS =        1505.7784                 WELLS =           5.0000

           TOTAL OUT =        1505.7784             TOTAL OUT =           5.0000

            IN - OUT =       1.5016E-05              IN - OUT =       5.9332E-08

 PERCENT DISCREPANCY =           0.00     PERCENT DISCREPANCY =           0.00






          TIME SUMMARY AT END OF TIME STEP         1 IN STRESS PERIOD        11
                    SECONDS     MINUTES      HOURS       DAYS        YEARS
                    -----------------------------------------------------------
   TIME STEP LENGTH  99851.      1664.2      27.736      1.1557     3.16409E-03
 STRESS PERIOD TIME  99851.      1664.2      27.736      1.1557     3.16409E-03
         TOTAL TIME 2.60198E+07 4.33664E+05  7227.7      301.16     0.82452    
1
 ------------------------------------------------------------------------------------------------------------
 
 SOLVING FOR TRANSPORT 

 ------------------------------------------------------------------------------------------------------------------------
     1 CALLS TO SPARSE MATRIX SOLVER PACKAGE IN TRANSPORT TIME STEP       1 STRESS PERIOD      11 SPECIES  1

 TOTAL OF       1OUTER ITERATIONS
  MAXIMUM CHANGE FOR EACH ITERATION:
   MAX. CHANGE        NODE  MAX. CHANGE        NODE  MAX. CHANGE        NODE  MAX. CHANGE        NODE  MAX. CHANGE        NODE
 ------------------------------------------------------------------------------------------------------------------------------------
  -0.43969E-11,        191

  MAXIMUM CHANGE FOR CLN NODE AT EACH ITERATION:
   MAX. CHANGE    CLN-CELL  MAX. CHANGE    CLN-CELL  MAX. CHANGE    CLN-CELL  MAX. CHANGE    CLN-CELL  MAX. CHANGE    CLN-CELL
 ------------------------------------------------------------------------------------------------------------------------------------
   0.18022E-08,          2
     TRANSPORT SOLUTION COMPLETE FOR COMPONENT SPECIES NUMBER    1
     ------------------------------------------------------------
 UBUDSVU SAVING "    MASS STORAGE" ON UNIT 145 AT TIME STEP      1, STRESS PERIOD     11
 UBUDSVU SAVING "CLN MASS STORAGE" ON UNIT 145 AT TIME STEP      1, STRESS PERIOD     11
 UBUDSVU SAVING "CNST H MASS FLUX" ON UNIT 145 AT TIME STEP      1, STRESS PERIOD     11
 UBUDSVU SAVING "  WELL MASS FLUX" ON UNIT 145 AT TIME STEP      1, STRESS PERIOD     11

 TRANSPORT SOLUTION COMPLETE FOR ALL SPECIES, SORTING OUTPUT FOR CONCENTRATIONS AND MASS BALANCE
 ----------------------------------------------------------------------------------------------------
     TRANSPORT OUTPUT FOR COMPONENT SPECIES NUMBER    1
     ------------------------------------------------------------

 CONC WILL BE SAVED ON UNIT  132 AT END OF TIME STEP        1, STRESS PERIOD       11

 CLN CONC WILL BE SAVED ON UNIT  188 AT END OF TIME STEP   1, STRESS PERIOD   11
1
  VOLUMETRIC BUDGET FOR ENTIRE MODEL AT END OF TIME STEP       1 IN STRESS PERIOD      11
  ---------------------------------------------------------------------------------------

     CUMULATIVE VOLUMES      L**3       RATES FOR THIS TIME STEP      L**3/T
     ------------------                 ------------------------

           IN:                                      IN:
           ---                                      ---
        MASS STORAGE =         150.5778          MASS STORAGE =           0.5000
    CNST H MASS FLUX =           0.0000      CNST H MASS FLUX =           0.0000
      WELL MASS FLUX =           0.0000        WELL MASS FLUX =           0.0000

            TOTAL IN =         150.5778              TOTAL IN =           0.5000

          OUT:                                     OUT:
          ----                                     ----
        MASS STORAGE =           0.2827          MASS STORAGE =       7.4479E-10
    CNST H MASS FLUX =           0.0000      CNST H MASS FLUX =           0.0000
      WELL MASS FLUX =         150.2951        WELL MASS FLUX =           0.5000

           TOTAL OUT =         150.5778             TOTAL OUT =           0.5000

            IN - OUT =       1.1698E-10              IN - OUT =      -7.4479E-10

 PERCENT DISCREPANCY =           0.00     PERCENT DISCREPANCY =          -0.00






          TIME SUMMARY AT END OF TIME STEP         1 IN STRESS PERIOD        11
                    SECONDS     MINUTES      HOURS       DAYS        YEARS
                    -----------------------------------------------------------
   TIME STEP LENGTH  99851.      1664.2      27.736      1.1557     3.16409E-03
 STRESS PERIOD TIME  99851.      1664.2      27.736      1.1557     3.16409E-03
         TOTAL TIME 2.60198E+07 4.33664E+05  7227.7      301.16     0.82452    
1
 -------------------------------------------------------------------------------------
 
 SOLVING FOR HEAD 

 Outer-Iteration  Inner-Iteration  Backtracking  Number of        Incoming       Outgoing  Maximum HeadChange      Maximum Head Change
     Number           Count           Flag       Backtracks       Residual       Residual           Value              Location
        1                             0             0          0.391775E-01     0.391775E-01
        1                5                                                                       -0.661487E-01               400           GWF-node number
        1                5                                                                       -0.620861E-01                 3           CLN-node number
        2                             0             0          0.411529E-14     0.411529E-14
        2                1                                                                        0.561166E-07               190           GWF-node number
        2                1                                                                        0.157524E-06                 3           CLN-node number
     2 CALLS TO SPARSE MATRIX SOLVER PACKAGE  IN FLOW TIME STEP       2 STRESS PERIOD      11

 TOTAL OF       2OUTER ITERATIONS
  MAXIMUM CHANGE FOR EACH ITERATION:
   MAX. CHANGE        NODE  MAX. CHANGE        NODE  MAX. CHANGE        NODE  MAX. CHANGE        NODE  MAX. CHANGE        NODE
 ------------------------------------------------------------------------------------------------------------------------------------
  -0.66149E-01,        400  0.56117E-07,        190

  MAXIMUM CHANGE FOR CLN NODE AT EACH ITERATION:
   MAX. CHANGE    CLN-CELL  MAX. CHANGE    CLN-CELL  MAX. CHANGE    CLN-CELL  MAX. CHANGE    CLN-CELL  MAX. CHANGE    CLN-CELL
 ------------------------------------------------------------------------------------------------------------------------------------
  -0.62086E-01,          3  0.15752E-06,          3

 HEAD/DRAWDOWN PRINTOUT FLAG = 1     TOTAL BUDGET PRINTOUT FLAG = 1
 CELL-BY-CELL FLOW TERM FLAG = 1
 CONCENTRATION PRINTOUT FLAG = 1

 OUTPUT FLAGS FOR ALL LAYERS ARE THE SAME:
   HEAD    DRAWDOWN  HEAD  DRAWDOWN    CONC    CONC
 PRINTOUT  PRINTOUT  SAVE    SAVE    PRINTOUT  SAVE
 ---------------------------------------------------
     0         0       1       1       0       1
 UBUDSVU SAVING "         STORAGE" ON UNIT  50 AT TIME STEP      2, STRESS PERIOD     11
 UBUDSV SAVING "     CLN STORAGE" ON UNIT 144 AT TIME STEP      2, STRESS PERIOD      11
 UBUDSVU SAVING "   CONSTANT HEAD" ON UNIT  50 AT TIME STEP      2, STRESS PERIOD     11
 UBUDSVU SAVING "   FLOW JA FACE " ON UNIT  50 AT TIME STEP      2, STRESS PERIOD     11
 UBUDSVU SAVING "             CLN" ON UNIT  50 AT TIME STEP      2, STRESS PERIOD     11
 UBUDSVU SAVING "  CLN CONST HEAD" ON UNIT 144 AT TIME STEP      2, STRESS PERIOD     11
 UBUDSVU SAVING "   FLOW CLN FACE" ON UNIT 144 AT TIME STEP      2, STRESS PERIOD     11
 UBUDSVU SAVING "             GWF" ON UNIT 144 AT TIME STEP      2, STRESS PERIOD     11
 UBUDSVU SAVING "           WELLS" ON UNIT  50 AT TIME STEP      2, STRESS PERIOD     11
 UBUDSVU SAVING "           WELLS" ON UNIT 144 AT TIME STEP      2, STRESS PERIOD     11

 HEAD WILL BE SAVED ON UNIT       30 AT END OF TIME STEP        2, STRESS PERIOD       11

 DRAWDOWN WILL BE SAVED ON UNIT   31 AT END OF TIME STEP   2, STRESS PERIOD   11

 CLN HEAD WILL BE SAVED ON UNIT   77 AT END OF TIME STEP   2, STRESS PERIOD   11
1
  VOLUMETRIC BUDGET FOR ENTIRE MODEL AT END OF TIME STEP       2 IN STRESS PERIOD      11
  ---------------------------------------------------------------------------------------

     CUMULATIVE VOLUMES      L**3       RATES FOR THIS TIME STEP      L**3/T
     ------------------                 ------------------------

           IN:                                      IN:
           ---                                      ---
             STORAGE =        1512.7125               STORAGE =           5.0000
         CLN STORAGE =           0.0000           CLN STORAGE =           0.0000
       CONSTANT HEAD =           0.0000         CONSTANT HEAD =           0.0000
      CLN CONST HEAD =           0.0000        CLN CONST HEAD =           0.0000
               WELLS =           0.0000                 WELLS =           0.0000

            TOTAL IN =        1512.7125              TOTAL IN =           5.0000

          OUT:                                     OUT:
          ----                                     ----
             STORAGE =           0.0000               STORAGE =           0.0000
         CLN STORAGE =           0.0000           CLN STORAGE =           0.0000
       CONSTANT HEAD =           0.0000         CONSTANT HEAD =           0.0000
      CLN CONST HEAD =           0.0000        CLN CONST HEAD =           0.0000
               WELLS =        1512.7124                 WELLS =           5.0000

           TOTAL OUT =        1512.7124             TOTAL OUT =           5.0000

            IN - OUT =       1.5087E-05              IN - OUT =       5.0753E-08

 PERCENT DISCREPANCY =           0.00     PERCENT DISCREPANCY =           0.00






          TIME SUMMARY AT END OF TIME STEP         2 IN STRESS PERIOD        11
                    SECONDS     MINUTES      HOURS       DAYS        YEARS
                    -----------------------------------------------------------
   TIME STEP LENGTH 1.19821E+05  1997.0      33.284      1.3868     3.79690E-03
 STRESS PERIOD TIME 2.19672E+05  3661.2      61.020      2.5425     6.96099E-03
         TOTAL TIME 2.61397E+07 4.35661E+05  7261.0      302.54     0.82832    
1
 ------------------------------------------------------------------------------------------------------------
 
 SOLVING FOR TRANSPORT 

 ------------------------------------------------------------------------------------------------------------------------
     1 CALLS TO SPARSE MATRIX SOLVER PACKAGE IN TRANSPORT TIME STEP       2 STRESS PERIOD      11 SPECIES  1

 TOTAL OF       1OUTER ITERATIONS
  MAXIMUM CHANGE FOR EACH ITERATION:
   MAX. CHANGE        NODE  MAX. CHANGE        NODE  MAX. CHANGE        NODE  MAX. CHANGE        NODE  MAX. CHANGE        NODE
 ------------------------------------------------------------------------------------------------------------------------------------
   0.59828E-11,        191

  MAXIMUM CHANGE FOR CLN NODE AT EACH ITERATION:
   MAX. CHANGE    CLN-CELL  MAX. CHANGE    CLN-CELL  MAX. CHANGE    CLN-CELL  MAX. CHANGE    CLN-CELL  MAX. CHANGE    CLN-CELL
 ------------------------------------------------------------------------------------------------------------------------------------
  -0.12501E-08,          2
     TRANSPORT SOLUTION COMPLETE FOR COMPONENT SPECIES NUMBER    1
     ------------------------------------------------------------
 UBUDSVU SAVING "    MASS STORAGE" ON UNIT 145 AT TIME STEP      2, STRESS PERIOD     11
 UBUDSVU SAVING "CLN MASS STORAGE" ON UNIT 145 AT TIME STEP      2, STRESS PERIOD     11
 UBUDSVU SAVING "CNST H MASS FLUX" ON UNIT 145 AT TIME STEP      2, STRESS PERIOD     11
 UBUDSVU SAVING "  WELL MASS FLUX" ON UNIT 145 AT TIME STEP      2, STRESS PERIOD     11

 TRANSPORT SOLUTION COMPLETE FOR ALL SPECIES, SORTING OUTPUT FOR CONCENTRATIONS AND MASS BALANCE
 ----------------------------------------------------------------------------------------------------
     TRANSPORT OUTPUT FOR COMPONENT SPECIES NUMBER    1
     ------------------------------------------------------------

 CONC WILL BE SAVED ON UNIT  132 AT END OF TIME STEP        2, STRESS PERIOD       11

 CLN CONC WILL BE SAVED ON UNIT  188 AT END OF TIME STEP   2, STRESS PERIOD   11
1
  VOLUMETRIC BUDGET FOR ENTIRE MODEL AT END OF TIME STEP       2 IN STRESS PERIOD      11
  ---------------------------------------------------------------------------------------

     CUMULATIVE VOLUMES      L**3       RATES FOR THIS TIME STEP      L**3/T
     ------------------                 ------------------------

           IN:                                      IN:
           ---                                      ---
        MASS STORAGE =         151.2712          MASS STORAGE =           0.5000
    CNST H MASS FLUX =           0.0000      CNST H MASS FLUX =           0.0000
      WELL MASS FLUX =           0.0000        WELL MASS FLUX =           0.0000

            TOTAL IN =         151.2712              TOTAL IN =           0.5000

          OUT:                                     OUT:
          ----                                     ----
        MASS STORAGE =           0.2827          MASS STORAGE =           0.0000
    CNST H MASS FLUX =           0.0000      CNST H MASS FLUX =           0.0000
      WELL MASS FLUX =         150.9885        WELL MASS FLUX =           0.5000

           TOTAL OUT =         151.2712             TOTAL OUT =           0.5000

            IN - OUT =       1.1732E-10              IN - OUT =           0.0000

 PERCENT DISCREPANCY =           0.00     PERCENT DISCREPANCY =           0.00






          TIME SUMMARY AT END OF TIME STEP         2 IN STRESS PERIOD        11
                    SECONDS     MINUTES      HOURS       DAYS        YEARS
                    -----------------------------------------------------------
   TIME STEP LENGTH 1.19821E+05  1997.0      33.284      1.3868     3.79690E-03
 STRESS PERIOD TIME 2.19672E+05  3661.2      61.020      2.5425     6.96099E-03
         TOTAL TIME 2.61397E+07 4.35661E+05  7261.0      302.54     0.82832    
1
 -------------------------------------------------------------------------------------
 
 SOLVING FOR HEAD 

 Outer-Iteration  Inner-Iteration  Backtracking  Number of        Incoming       Outgoing  Maximum HeadChange      Maximum Head Change
     Number           Count           Flag       Backtracks       Residual       Residual           Value              Location
        1                             0             0          0.391426E-01     0.391426E-01
        1                5                                                                       -0.793166E-01               400           GWF-node number
        1                5                                                                       -0.744493E-01                 3           CLN-node number
        2                             0             0          0.140446E-14     0.140446E-14
        2                1                                                                       -0.470192E-07               190           GWF-node number
        2                1                                                                       -0.109123E-06                 3           CLN-node number
     2 CALLS TO SPARSE MATRIX SOLVER PACKAGE  IN FLOW TIME STEP       3 STRESS PERIOD      11

 TOTAL OF       2OUTER ITERATIONS
  MAXIMUM CHANGE FOR EACH ITERATION:
   MAX. CHANGE        NODE  MAX. CHANGE        NODE  MAX. CHANGE        NODE  MAX. CHANGE        NODE  MAX. CHANGE        NODE
 ------------------------------------------------------------------------------------------------------------------------------------
  -0.79317E-01,        400 -0.47019E-07,        190

  MAXIMUM CHANGE FOR CLN NODE AT EACH ITERATION:
   MAX. CHANGE    CLN-CELL  MAX. CHANGE    CLN-CELL  MAX. CHANGE    CLN-CELL  MAX. CHANGE    CLN-CELL  MAX. CHANGE    CLN-CELL
 ------------------------------------------------------------------------------------------------------------------------------------
  -0.74449E-01,          3 -0.10912E-06,          3

 HEAD/DRAWDOWN PRINTOUT FLAG = 1     TOTAL BUDGET PRINTOUT FLAG = 1
 CELL-BY-CELL FLOW TERM FLAG = 1
 CONCENTRATION PRINTOUT FLAG = 1

 OUTPUT FLAGS FOR ALL LAYERS ARE THE SAME:
   HEAD    DRAWDOWN  HEAD  DRAWDOWN    CONC    CONC
 PRINTOUT  PRINTOUT  SAVE    SAVE    PRINTOUT  SAVE
 ---------------------------------------------------
     0         0       1       1       0       1
 UBUDSVU SAVING "         STORAGE" ON UNIT  50 AT TIME STEP      3, STRESS PERIOD     11
 UBUDSV SAVING "     CLN STORAGE" ON UNIT 144 AT TIME STEP      3, STRESS PERIOD      11
 UBUDSVU SAVING "   CONSTANT HEAD" ON UNIT  50 AT TIME STEP      3, STRESS PERIOD     11
 UBUDSVU SAVING "   FLOW JA FACE " ON UNIT  50 AT TIME STEP      3, STRESS PERIOD     11
 UBUDSVU SAVING "             CLN" ON UNIT  50 AT TIME STEP      3, STRESS PERIOD     11
 UBUDSVU SAVING "  CLN CONST HEAD" ON UNIT 144 AT TIME STEP      3, STRESS PERIOD     11
 UBUDSVU SAVING "   FLOW CLN FACE" ON UNIT 144 AT TIME STEP      3, STRESS PERIOD     11
 UBUDSVU SAVING "             GWF" ON UNIT 144 AT TIME STEP      3, STRESS PERIOD     11
 UBUDSVU SAVING "           WELLS" ON UNIT  50 AT TIME STEP      3, STRESS PERIOD     11
 UBUDSVU SAVING "           WELLS" ON UNIT 144 AT TIME STEP      3, STRESS PERIOD     11

 HEAD WILL BE SAVED ON UNIT       30 AT END OF TIME STEP        3, STRESS PERIOD       11

 DRAWDOWN WILL BE SAVED ON UNIT   31 AT END OF TIME STEP   3, STRESS PERIOD   11

 CLN HEAD WILL BE SAVED ON UNIT   77 AT END OF TIME STEP   3, STRESS PERIOD   11
1
  VOLUMETRIC BUDGET FOR ENTIRE MODEL AT END OF TIME STEP       3 IN STRESS PERIOD      11
  ---------------------------------------------------------------------------------------

     CUMULATIVE VOLUMES      L**3       RATES FOR THIS TIME STEP      L**3/T
     ------------------                 ------------------------

           IN:                                      IN:
           ---                                      ---
             STORAGE =        1521.0334               STORAGE =           5.0000
         CLN STORAGE =           0.0000           CLN STORAGE =           0.0000
       CONSTANT HEAD =           0.0000         CONSTANT HEAD =           0.0000
      CLN CONST HEAD =           0.0000        CLN CONST HEAD =           0.0000
               WELLS =           0.0000                 WELLS =           0.0000

            TOTAL IN =        1521.0334              TOTAL IN =           5.0000

          OUT:                                     OUT:
          ----                                     ----
             STORAGE =           0.0000               STORAGE =           0.0000
         CLN STORAGE =           0.0000           CLN STORAGE =           0.0000
       CONSTANT HEAD =           0.0000         CONSTANT HEAD =           0.0000
      CLN CONST HEAD =           0.0000        CLN CONST HEAD =           0.0000
               WELLS =        1521.0334                 WELLS =           5.0000

           TOTAL OUT =        1521.0334             TOTAL OUT =           5.0000

            IN - OUT =       1.5144E-05              IN - OUT =       3.4779E-08

 PERCENT DISCREPANCY =           0.00     PERCENT DISCREPANCY =           0.00






          TIME SUMMARY AT END OF TIME STEP         3 IN STRESS PERIOD        11
                    SECONDS     MINUTES      HOURS       DAYS        YEARS
                    -----------------------------------------------------------
   TIME STEP LENGTH 1.43785E+05  2396.4      39.940      1.6642     4.55628E-03
 STRESS PERIOD TIME 3.63458E+05  6057.6      100.96      4.2067     1.15173E-02
         TOTAL TIME 2.62835E+07 4.38058E+05  7301.0      304.21     0.83287    
1
 ------------------------------------------------------------------------------------------------------------
 
 SOLVING FOR TRANSPORT 

 ------------------------------------------------------------------------------------------------------------------------
     1 CALLS TO SPARSE MATRIX SOLVER PACKAGE IN TRANSPORT TIME STEP       3 STRESS PERIOD      11 SPECIES  1

 TOTAL OF       1OUTER ITERATIONS
  MAXIMUM CHANGE FOR EACH ITERATION:
   MAX. CHANGE        NODE  MAX. CHANGE        NODE  MAX. CHANGE        NODE  MAX. CHANGE        NODE  MAX. CHANGE        NODE
 ------------------------------------------------------------------------------------------------------------------------------------
  -0.94208E-11,        191

  MAXIMUM CHANGE FOR CLN NODE AT EACH ITERATION:
   MAX. CHANGE    CLN-CELL  MAX. CHANGE    CLN-CELL  MAX. CHANGE    CLN-CELL  MAX. CHANGE    CLN-CELL  MAX. CHANGE    CLN-CELL
 ------------------------------------------------------------------------------------------------------------------------------------
   0.31984E-09,          3
     TRANSPORT SOLUTION COMPLETE FOR COMPONENT SPECIES NUMBER    1
     ------------------------------------------------------------
 UBUDSVU SAVING "    MASS STORAGE" ON UNIT 145 AT TIME STEP      3, STRESS PERIOD     11
 UBUDSVU SAVING "CLN MASS STORAGE" ON UNIT 145 AT TIME STEP      3, STRESS PERIOD     11
 UBUDSVU SAVING "CNST H MASS FLUX" ON UNIT 145 AT TIME STEP      3, STRESS PERIOD     11
 UBUDSVU SAVING "  WELL MASS FLUX" ON UNIT 145 AT TIME STEP      3, STRESS PERIOD     11

 TRANSPORT SOLUTION COMPLETE FOR ALL SPECIES, SORTING OUTPUT FOR CONCENTRATIONS AND MASS BALANCE
 ----------------------------------------------------------------------------------------------------
     TRANSPORT OUTPUT FOR COMPONENT SPECIES NUMBER    1
     ------------------------------------------------------------

 CONC WILL BE SAVED ON UNIT  132 AT END OF TIME STEP        3, STRESS PERIOD       11

 CLN CONC WILL BE SAVED ON UNIT  188 AT END OF TIME STEP   3, STRESS PERIOD   11
1
  VOLUMETRIC BUDGET FOR ENTIRE MODEL AT END OF TIME STEP       3 IN STRESS PERIOD      11
  ---------------------------------------------------------------------------------------

     CUMULATIVE VOLUMES      L**3       RATES FOR THIS TIME STEP      L**3/T
     ------------------                 ------------------------

           IN:                                      IN:
           ---                                      ---
        MASS STORAGE =         152.1033          MASS STORAGE =           0.5000
    CNST H MASS FLUX =           0.0000      CNST H MASS FLUX =           0.0000
      WELL MASS FLUX =           0.0000        WELL MASS FLUX =           0.0000

            TOTAL IN =         152.1033              TOTAL IN =           0.5000

          OUT:                                     OUT:
          ----                                     ----
        MASS STORAGE =           0.2827          MASS STORAGE =       4.5099E-10
    CNST H MASS FLUX =           0.0000      CNST H MASS FLUX =           0.0000
      WELL MASS FLUX =         151.8206        WELL MASS FLUX =           0.5000

           TOTAL OUT =         152.1033             TOTAL OUT =           0.5000

            IN - OUT =       1.1616E-10              IN - OUT =      -4.5099E-10

 PERCENT DISCREPANCY =           0.00     PERCENT DISCREPANCY =          -0.00






          TIME SUMMARY AT END OF TIME STEP         3 IN STRESS PERIOD        11
                    SECONDS     MINUTES      HOURS       DAYS        YEARS
                    -----------------------------------------------------------
   TIME STEP LENGTH 1.43785E+05  2396.4      39.940      1.6642     4.55628E-03
 STRESS PERIOD TIME 3.63458E+05  6057.6      100.96      4.2067     1.15173E-02
         TOTAL TIME 2.62835E+07 4.38058E+05  7301.0      304.21     0.83287    
1
 -------------------------------------------------------------------------------------
 
 SOLVING FOR HEAD 

 Outer-Iteration  Inner-Iteration  Backtracking  Number of        Incoming       Outgoing  Maximum HeadChange      Maximum Head Change
     Number           Count           Flag       Backtracks       Residual       Residual           Value              Location
        1                             0             0          0.391009E-01     0.391009E-01
        1                5                                                                       -0.950912E-01               400           GWF-node number
        1                5                                                                       -0.892618E-01                 1           CLN-node number
        2                             0             0          0.244393E-13     0.244393E-13
        2                1                                                                        0.511320E-07               470           GWF-node number
        2                1                                                                       -0.907442E-08                 2           CLN-node number
     2 CALLS TO SPARSE MATRIX SOLVER PACKAGE  IN FLOW TIME STEP       4 STRESS PERIOD      11

 TOTAL OF       2OUTER ITERATIONS
  MAXIMUM CHANGE FOR EACH ITERATION:
   MAX. CHANGE        NODE  MAX. CHANGE        NODE  MAX. CHANGE        NODE  MAX. CHANGE        NODE  MAX. CHANGE        NODE
 ------------------------------------------------------------------------------------------------------------------------------------
  -0.95091E-01,        400  0.51132E-07,        470

  MAXIMUM CHANGE FOR CLN NODE AT EACH ITERATION:
   MAX. CHANGE    CLN-CELL  MAX. CHANGE    CLN-CELL  MAX. CHANGE    CLN-CELL  MAX. CHANGE    CLN-CELL  MAX. CHANGE    CLN-CELL
 ------------------------------------------------------------------------------------------------------------------------------------
  -0.89262E-01,          1 -0.90744E-08,          2

 HEAD/DRAWDOWN PRINTOUT FLAG = 1     TOTAL BUDGET PRINTOUT FLAG = 1
 CELL-BY-CELL FLOW TERM FLAG = 1
 CONCENTRATION PRINTOUT FLAG = 1

 OUTPUT FLAGS FOR ALL LAYERS ARE THE SAME:
   HEAD    DRAWDOWN  HEAD  DRAWDOWN    CONC    CONC
 PRINTOUT  PRINTOUT  SAVE    SAVE    PRINTOUT  SAVE
 ---------------------------------------------------
     0         0       1       1       0       1
 UBUDSVU SAVING "         STORAGE" ON UNIT  50 AT TIME STEP      4, STRESS PERIOD     11
 UBUDSV SAVING "     CLN STORAGE" ON UNIT 144 AT TIME STEP      4, STRESS PERIOD      11
 UBUDSVU SAVING "   CONSTANT HEAD" ON UNIT  50 AT TIME STEP      4, STRESS PERIOD     11
 UBUDSVU SAVING "   FLOW JA FACE " ON UNIT  50 AT TIME STEP      4, STRESS PERIOD     11
 UBUDSVU SAVING "             CLN" ON UNIT  50 AT TIME STEP      4, STRESS PERIOD     11
 UBUDSVU SAVING "  CLN CONST HEAD" ON UNIT 144 AT TIME STEP      4, STRESS PERIOD     11
 UBUDSVU SAVING "   FLOW CLN FACE" ON UNIT 144 AT TIME STEP      4, STRESS PERIOD     11
 UBUDSVU SAVING "             GWF" ON UNIT 144 AT TIME STEP      4, STRESS PERIOD     11
 UBUDSVU SAVING "           WELLS" ON UNIT  50 AT TIME STEP      4, STRESS PERIOD     11
 UBUDSVU SAVING "           WELLS" ON UNIT 144 AT TIME STEP      4, STRESS PERIOD     11

 HEAD WILL BE SAVED ON UNIT       30 AT END OF TIME STEP        4, STRESS PERIOD       11

 DRAWDOWN WILL BE SAVED ON UNIT   31 AT END OF TIME STEP   4, STRESS PERIOD   11

 CLN HEAD WILL BE SAVED ON UNIT   77 AT END OF TIME STEP   4, STRESS PERIOD   11
1
  VOLUMETRIC BUDGET FOR ENTIRE MODEL AT END OF TIME STEP       4 IN STRESS PERIOD      11
  ---------------------------------------------------------------------------------------

     CUMULATIVE VOLUMES      L**3       RATES FOR THIS TIME STEP      L**3/T
     ------------------                 ------------------------

           IN:                                      IN:
           ---                                      ---
             STORAGE =        1531.0185               STORAGE =           5.0000
         CLN STORAGE =           0.0000           CLN STORAGE =           0.0000
       CONSTANT HEAD =           0.0000         CONSTANT HEAD =           0.0000
      CLN CONST HEAD =           0.0000        CLN CONST HEAD =           0.0000
               WELLS =           0.0000                 WELLS =           0.0000

            TOTAL IN =        1531.0185              TOTAL IN =           5.0000

          OUT:                                     OUT:
          ----                                     ----
             STORAGE =           0.0000               STORAGE =           0.0000
         CLN STORAGE =           0.0000           CLN STORAGE =           0.0000
       CONSTANT HEAD =           0.0000         CONSTANT HEAD =           0.0000
      CLN CONST HEAD =           0.0000        CLN CONST HEAD =           0.0000
               WELLS =        1531.0185                 WELLS =           5.0000

           TOTAL OUT =        1531.0185             TOTAL OUT =           5.0000

            IN - OUT =       1.5221E-05              IN - OUT =       3.8284E-08

 PERCENT DISCREPANCY =           0.00     PERCENT DISCREPANCY =           0.00






          TIME SUMMARY AT END OF TIME STEP         4 IN STRESS PERIOD        11
                    SECONDS     MINUTES      HOURS       DAYS        YEARS
                    -----------------------------------------------------------
   TIME STEP LENGTH 1.72542E+05  2875.7      47.928      1.9970     5.46754E-03
 STRESS PERIOD TIME 5.36000E+05  8933.3      148.89      6.2037     1.69848E-02
         TOTAL TIME 2.64560E+07 4.40933E+05  7348.9      306.20     0.83834    
1
 ------------------------------------------------------------------------------------------------------------
 
 SOLVING FOR TRANSPORT 

 ------------------------------------------------------------------------------------------------------------------------
     1 CALLS TO SPARSE MATRIX SOLVER PACKAGE IN TRANSPORT TIME STEP       4 STRESS PERIOD      11 SPECIES  1

 TOTAL OF       1OUTER ITERATIONS
  MAXIMUM CHANGE FOR EACH ITERATION:
   MAX. CHANGE        NODE  MAX. CHANGE        NODE  MAX. CHANGE        NODE  MAX. CHANGE        NODE  MAX. CHANGE        NODE
 ------------------------------------------------------------------------------------------------------------------------------------
  -0.37160E-11,        191

  MAXIMUM CHANGE FOR CLN NODE AT EACH ITERATION:
   MAX. CHANGE    CLN-CELL  MAX. CHANGE    CLN-CELL  MAX. CHANGE    CLN-CELL  MAX. CHANGE    CLN-CELL  MAX. CHANGE    CLN-CELL
 ------------------------------------------------------------------------------------------------------------------------------------
  -0.66819E-09,          1
     TRANSPORT SOLUTION COMPLETE FOR COMPONENT SPECIES NUMBER    1
     ------------------------------------------------------------
 UBUDSVU SAVING "    MASS STORAGE" ON UNIT 145 AT TIME STEP      4, STRESS PERIOD     11
 UBUDSVU SAVING "CLN MASS STORAGE" ON UNIT 145 AT TIME STEP      4, STRESS PERIOD     11
 UBUDSVU SAVING "CNST H MASS FLUX" ON UNIT 145 AT TIME STEP      4, STRESS PERIOD     11
 UBUDSVU SAVING "  WELL MASS FLUX" ON UNIT 145 AT TIME STEP      4, STRESS PERIOD     11

 TRANSPORT SOLUTION COMPLETE FOR ALL SPECIES, SORTING OUTPUT FOR CONCENTRATIONS AND MASS BALANCE
 ----------------------------------------------------------------------------------------------------
     TRANSPORT OUTPUT FOR COMPONENT SPECIES NUMBER    1
     ------------------------------------------------------------

 CONC WILL BE SAVED ON UNIT  132 AT END OF TIME STEP        4, STRESS PERIOD       11

 CLN CONC WILL BE SAVED ON UNIT  188 AT END OF TIME STEP   4, STRESS PERIOD   11
1
  VOLUMETRIC BUDGET FOR ENTIRE MODEL AT END OF TIME STEP       4 IN STRESS PERIOD      11
  ---------------------------------------------------------------------------------------

     CUMULATIVE VOLUMES      L**3       RATES FOR THIS TIME STEP      L**3/T
     ------------------                 ------------------------

           IN:                                      IN:
           ---                                      ---
        MASS STORAGE =         153.1018          MASS STORAGE =           0.5000
    CNST H MASS FLUX =           0.0000      CNST H MASS FLUX =           0.0000
      WELL MASS FLUX =           0.0000        WELL MASS FLUX =           0.0000

            TOTAL IN =         153.1018              TOTAL IN =           0.5000

          OUT:                                     OUT:
          ----                                     ----
        MASS STORAGE =           0.2827          MASS STORAGE =       1.5420E-11
    CNST H MASS FLUX =           0.0000      CNST H MASS FLUX =           0.0000
      WELL MASS FLUX =         152.8191        WELL MASS FLUX =           0.5000

           TOTAL OUT =         153.1018             TOTAL OUT =           0.5000

            IN - OUT =       1.1559E-10              IN - OUT =      -1.5420E-11

 PERCENT DISCREPANCY =           0.00     PERCENT DISCREPANCY =          -0.00






          TIME SUMMARY AT END OF TIME STEP         4 IN STRESS PERIOD        11
                    SECONDS     MINUTES      HOURS       DAYS        YEARS
                    -----------------------------------------------------------
   TIME STEP LENGTH 1.72542E+05  2875.7      47.928      1.9970     5.46754E-03
 STRESS PERIOD TIME 5.36000E+05  8933.3      148.89      6.2037     1.69848E-02
         TOTAL TIME 2.64560E+07 4.40933E+05  7348.9      306.20     0.83834    
1
 -------------------------------------------------------------------------------------
 
 SOLVING FOR HEAD 

 Outer-Iteration  Inner-Iteration  Backtracking  Number of        Incoming       Outgoing  Maximum HeadChange      Maximum Head Change
     Number           Count           Flag       Backtracks       Residual       Residual           Value              Location
        1                             0             0          0.390512E-01     0.390512E-01
        1                6                                                                       -0.113982                   400           GWF-node number
        1                6                                                                       -0.107003                     1           CLN-node number
        2                             0             0          0.812397E-14     0.812397E-14
        2                1                                                                        0.560719E-07               190           GWF-node number
        2                1                                                                        0.145562E-06                 3           CLN-node number
     2 CALLS TO SPARSE MATRIX SOLVER PACKAGE  IN FLOW TIME STEP       5 STRESS PERIOD      11

 TOTAL OF       2OUTER ITERATIONS
  MAXIMUM CHANGE FOR EACH ITERATION:
   MAX. CHANGE        NODE  MAX. CHANGE        NODE  MAX. CHANGE        NODE  MAX. CHANGE        NODE  MAX. CHANGE        NODE
 ------------------------------------------------------------------------------------------------------------------------------------
  -0.11398    ,        400  0.56072E-07,        190

  MAXIMUM CHANGE FOR CLN NODE AT EACH ITERATION:
   MAX. CHANGE    CLN-CELL  MAX. CHANGE    CLN-CELL  MAX. CHANGE    CLN-CELL  MAX. CHANGE    CLN-CELL  MAX. CHANGE    CLN-CELL
 ------------------------------------------------------------------------------------------------------------------------------------
  -0.10700    ,          1  0.14556E-06,          3

 HEAD/DRAWDOWN PRINTOUT FLAG = 1     TOTAL BUDGET PRINTOUT FLAG = 1
 CELL-BY-CELL FLOW TERM FLAG = 1
 CONCENTRATION PRINTOUT FLAG = 1

 OUTPUT FLAGS FOR ALL LAYERS ARE THE SAME:
   HEAD    DRAWDOWN  HEAD  DRAWDOWN    CONC    CONC
 PRINTOUT  PRINTOUT  SAVE    SAVE    PRINTOUT  SAVE
 ---------------------------------------------------
     0         0       1       1       0       1
 UBUDSVU SAVING "         STORAGE" ON UNIT  50 AT TIME STEP      5, STRESS PERIOD     11
 UBUDSV SAVING "     CLN STORAGE" ON UNIT 144 AT TIME STEP      5, STRESS PERIOD      11
 UBUDSVU SAVING "   CONSTANT HEAD" ON UNIT  50 AT TIME STEP      5, STRESS PERIOD     11
 UBUDSVU SAVING "   FLOW JA FACE " ON UNIT  50 AT TIME STEP      5, STRESS PERIOD     11
 UBUDSVU SAVING "             CLN" ON UNIT  50 AT TIME STEP      5, STRESS PERIOD     11
 UBUDSVU SAVING "  CLN CONST HEAD" ON UNIT 144 AT TIME STEP      5, STRESS PERIOD     11
 UBUDSVU SAVING "   FLOW CLN FACE" ON UNIT 144 AT TIME STEP      5, STRESS PERIOD     11
 UBUDSVU SAVING "             GWF" ON UNIT 144 AT TIME STEP      5, STRESS PERIOD     11
 UBUDSVU SAVING "           WELLS" ON UNIT  50 AT TIME STEP      5, STRESS PERIOD     11
 UBUDSVU SAVING "           WELLS" ON UNIT 144 AT TIME STEP      5, STRESS PERIOD     11

 HEAD WILL BE SAVED ON UNIT       30 AT END OF TIME STEP        5, STRESS PERIOD       11

 DRAWDOWN WILL BE SAVED ON UNIT   31 AT END OF TIME STEP   5, STRESS PERIOD   11

 CLN HEAD WILL BE SAVED ON UNIT   77 AT END OF TIME STEP   5, STRESS PERIOD   11
1
  VOLUMETRIC BUDGET FOR ENTIRE MODEL AT END OF TIME STEP       5 IN STRESS PERIOD      11
  ---------------------------------------------------------------------------------------

     CUMULATIVE VOLUMES      L**3       RATES FOR THIS TIME STEP      L**3/T
     ------------------                 ------------------------

           IN:                                      IN:
           ---                                      ---
             STORAGE =        1543.0006               STORAGE =           5.0000
         CLN STORAGE =           0.0000           CLN STORAGE =           0.0000
       CONSTANT HEAD =           0.0000         CONSTANT HEAD =           0.0000
      CLN CONST HEAD =           0.0000        CLN CONST HEAD =           0.0000
               WELLS =           0.0000                 WELLS =           0.0000

            TOTAL IN =        1543.0006              TOTAL IN =           5.0000

          OUT:                                     OUT:
          ----                                     ----
             STORAGE =           0.0000               STORAGE =           0.0000
         CLN STORAGE =           0.0000           CLN STORAGE =           0.0000
       CONSTANT HEAD =           0.0000         CONSTANT HEAD =           0.0000
      CLN CONST HEAD =           0.0000        CLN CONST HEAD =           0.0000
               WELLS =        1543.0006                 WELLS =           5.0000

           TOTAL OUT =        1543.0006             TOTAL OUT =           5.0000

            IN - OUT =       1.5370E-05              IN - OUT =       6.2196E-08

 PERCENT DISCREPANCY =           0.00     PERCENT DISCREPANCY =           0.00






          TIME SUMMARY AT END OF TIME STEP         5 IN STRESS PERIOD        11
                    SECONDS     MINUTES      HOURS       DAYS        YEARS
                    -----------------------------------------------------------
   TIME STEP LENGTH 2.07051E+05  3450.8      57.514      2.3964     6.56105E-03
 STRESS PERIOD TIME 7.43051E+05  12384.      206.40      8.6001     2.35459E-02
         TOTAL TIME 2.66630E+07 4.44384E+05  7406.4      308.60     0.84490    
1
 ------------------------------------------------------------------------------------------------------------
 
 SOLVING FOR TRANSPORT 

 ------------------------------------------------------------------------------------------------------------------------
     1 CALLS TO SPARSE MATRIX SOLVER PACKAGE IN TRANSPORT TIME STEP       5 STRESS PERIOD      11 SPECIES  1

 TOTAL OF       1OUTER ITERATIONS
  MAXIMUM CHANGE FOR EACH ITERATION:
   MAX. CHANGE        NODE  MAX. CHANGE        NODE  MAX. CHANGE        NODE  MAX. CHANGE        NODE  MAX. CHANGE        NODE
 ------------------------------------------------------------------------------------------------------------------------------------
   0.10321E-10,        191

  MAXIMUM CHANGE FOR CLN NODE AT EACH ITERATION:
   MAX. CHANGE    CLN-CELL  MAX. CHANGE    CLN-CELL  MAX. CHANGE    CLN-CELL  MAX. CHANGE    CLN-CELL  MAX. CHANGE    CLN-CELL
 ------------------------------------------------------------------------------------------------------------------------------------
  -0.11529E-08,          2
     TRANSPORT SOLUTION COMPLETE FOR COMPONENT SPECIES NUMBER    1
     ------------------------------------------------------------
 UBUDSVU SAVING "    MASS STORAGE" ON UNIT 145 AT TIME STEP      5, STRESS PERIOD     11
 UBUDSVU SAVING "CLN MASS STORAGE" ON UNIT 145 AT TIME STEP      5, STRESS PERIOD     11
 UBUDSVU SAVING "CNST H MASS FLUX" ON UNIT 145 AT TIME STEP      5, STRESS PERIOD     11
 UBUDSVU SAVING "  WELL MASS FLUX" ON UNIT 145 AT TIME STEP      5, STRESS PERIOD     11

 TRANSPORT SOLUTION COMPLETE FOR ALL SPECIES, SORTING OUTPUT FOR CONCENTRATIONS AND MASS BALANCE
 ----------------------------------------------------------------------------------------------------
     TRANSPORT OUTPUT FOR COMPONENT SPECIES NUMBER    1
     ------------------------------------------------------------

 CONC WILL BE SAVED ON UNIT  132 AT END OF TIME STEP        5, STRESS PERIOD       11

 CLN CONC WILL BE SAVED ON UNIT  188 AT END OF TIME STEP   5, STRESS PERIOD   11
1
  VOLUMETRIC BUDGET FOR ENTIRE MODEL AT END OF TIME STEP       5 IN STRESS PERIOD      11
  ---------------------------------------------------------------------------------------

     CUMULATIVE VOLUMES      L**3       RATES FOR THIS TIME STEP      L**3/T
     ------------------                 ------------------------

           IN:                                      IN:
           ---                                      ---
        MASS STORAGE =         154.3001          MASS STORAGE =           0.5000
    CNST H MASS FLUX =           0.0000      CNST H MASS FLUX =           0.0000
      WELL MASS FLUX =           0.0000        WELL MASS FLUX =           0.0000

            TOTAL IN =         154.3001              TOTAL IN =           0.5000

          OUT:                                     OUT:
          ----                                     ----
        MASS STORAGE =           0.2827          MASS STORAGE =       2.7481E-10
    CNST H MASS FLUX =           0.0000      CNST H MASS FLUX =           0.0000
      WELL MASS FLUX =         154.0173        WELL MASS FLUX =           0.5000

           TOTAL OUT =         154.3001             TOTAL OUT =           0.5000

            IN - OUT =       1.1786E-10              IN - OUT =      -2.7481E-10

 PERCENT DISCREPANCY =           0.00     PERCENT DISCREPANCY =          -0.00






          TIME SUMMARY AT END OF TIME STEP         5 IN STRESS PERIOD        11
                    SECONDS     MINUTES      HOURS       DAYS        YEARS
                    -----------------------------------------------------------
   TIME STEP LENGTH 2.07051E+05  3450.8      57.514      2.3964     6.56105E-03
 STRESS PERIOD TIME 7.43051E+05  12384.      206.40      8.6001     2.35459E-02
         TOTAL TIME 2.66630E+07 4.44384E+05  7406.4      308.60     0.84490    
1
 -------------------------------------------------------------------------------------
 
 SOLVING FOR HEAD 

 Outer-Iteration  Inner-Iteration  Backtracking  Number of        Incoming       Outgoing  Maximum HeadChange      Maximum Head Change
     Number           Count           Flag       Backtracks       Residual       Residual           Value              Location
        1                             0             0          0.389919E-01     0.389919E-01
        1                6                                                                       -0.136595                   400           GWF-node number
        1                6                                                                       -0.128245                     1           CLN-node number
        2                             0             0          0.408962E-14     0.408962E-14
        2                1                                                                        0.372708E-07               190           GWF-node number
        2                1                                                                        0.993138E-07                 3           CLN-node number
     2 CALLS TO SPARSE MATRIX SOLVER PACKAGE  IN FLOW TIME STEP       6 STRESS PERIOD      11

 TOTAL OF       2OUTER ITERATIONS
  MAXIMUM CHANGE FOR EACH ITERATION:
   MAX. CHANGE        NODE  MAX. CHANGE        NODE  MAX. CHANGE        NODE  MAX. CHANGE        NODE  MAX. CHANGE        NODE
 ------------------------------------------------------------------------------------------------------------------------------------
  -0.13660    ,        400  0.37271E-07,        190

  MAXIMUM CHANGE FOR CLN NODE AT EACH ITERATION:
   MAX. CHANGE    CLN-CELL  MAX. CHANGE    CLN-CELL  MAX. CHANGE    CLN-CELL  MAX. CHANGE    CLN-CELL  MAX. CHANGE    CLN-CELL
 ------------------------------------------------------------------------------------------------------------------------------------
  -0.12825    ,          1  0.99314E-07,          3

 HEAD/DRAWDOWN PRINTOUT FLAG = 1     TOTAL BUDGET PRINTOUT FLAG = 1
 CELL-BY-CELL FLOW TERM FLAG = 1
 CONCENTRATION PRINTOUT FLAG = 1

 OUTPUT FLAGS FOR ALL LAYERS ARE THE SAME:
   HEAD    DRAWDOWN  HEAD  DRAWDOWN    CONC    CONC
 PRINTOUT  PRINTOUT  SAVE    SAVE    PRINTOUT  SAVE
 ---------------------------------------------------
     0         0       1       1       0       1
 UBUDSVU SAVING "         STORAGE" ON UNIT  50 AT TIME STEP      6, STRESS PERIOD     11
 UBUDSV SAVING "     CLN STORAGE" ON UNIT 144 AT TIME STEP      6, STRESS PERIOD      11
 UBUDSVU SAVING "   CONSTANT HEAD" ON UNIT  50 AT TIME STEP      6, STRESS PERIOD     11
 UBUDSVU SAVING "   FLOW JA FACE " ON UNIT  50 AT TIME STEP      6, STRESS PERIOD     11
 UBUDSVU SAVING "             CLN" ON UNIT  50 AT TIME STEP      6, STRESS PERIOD     11
 UBUDSVU SAVING "  CLN CONST HEAD" ON UNIT 144 AT TIME STEP      6, STRESS PERIOD     11
 UBUDSVU SAVING "   FLOW CLN FACE" ON UNIT 144 AT TIME STEP      6, STRESS PERIOD     11
 UBUDSVU SAVING "             GWF" ON UNIT 144 AT TIME STEP      6, STRESS PERIOD     11
 UBUDSVU SAVING "           WELLS" ON UNIT  50 AT TIME STEP      6, STRESS PERIOD     11
 UBUDSVU SAVING "           WELLS" ON UNIT 144 AT TIME STEP      6, STRESS PERIOD     11

 HEAD WILL BE SAVED ON UNIT       30 AT END OF TIME STEP        6, STRESS PERIOD       11

 DRAWDOWN WILL BE SAVED ON UNIT   31 AT END OF TIME STEP   6, STRESS PERIOD   11

 CLN HEAD WILL BE SAVED ON UNIT   77 AT END OF TIME STEP   6, STRESS PERIOD   11
1
  VOLUMETRIC BUDGET FOR ENTIRE MODEL AT END OF TIME STEP       6 IN STRESS PERIOD      11
  ---------------------------------------------------------------------------------------

     CUMULATIVE VOLUMES      L**3       RATES FOR THIS TIME STEP      L**3/T
     ------------------                 ------------------------

           IN:                                      IN:
           ---                                      ---
             STORAGE =        1557.3791               STORAGE =           5.0000
         CLN STORAGE =           0.0000           CLN STORAGE =           0.0000
       CONSTANT HEAD =           0.0000         CONSTANT HEAD =           0.0000
      CLN CONST HEAD =           0.0000        CLN CONST HEAD =           0.0000
               WELLS =           0.0000                 WELLS =           0.0000

            TOTAL IN =        1557.3791              TOTAL IN =           5.0000

          OUT:                                     OUT:
          ----                                     ----
             STORAGE =           0.0000               STORAGE =           0.0000
         CLN STORAGE =           0.0000           CLN STORAGE =           0.0000
       CONSTANT HEAD =           0.0000         CONSTANT HEAD =           0.0000
      CLN CONST HEAD =           0.0000        CLN CONST HEAD =           0.0000
               WELLS =        1557.3791                 WELLS =           5.0000

           TOTAL OUT =        1557.3791             TOTAL OUT =           5.0000

            IN - OUT =       1.5555E-05              IN - OUT =       6.4459E-08

 PERCENT DISCREPANCY =           0.00     PERCENT DISCREPANCY =           0.00






          TIME SUMMARY AT END OF TIME STEP         6 IN STRESS PERIOD        11
                    SECONDS     MINUTES      HOURS       DAYS        YEARS
                    -----------------------------------------------------------
   TIME STEP LENGTH 2.48461E+05  4141.0      69.017      2.8757     7.87326E-03
 STRESS PERIOD TIME 9.91512E+05  16525.      275.42      11.476     3.14191E-02
         TOTAL TIME 2.69115E+07 4.48525E+05  7475.4      311.48     0.85277    
1
 ------------------------------------------------------------------------------------------------------------
 
 SOLVING FOR TRANSPORT 

 ------------------------------------------------------------------------------------------------------------------------
     1 CALLS TO SPARSE MATRIX SOLVER PACKAGE IN TRANSPORT TIME STEP       6 STRESS PERIOD      11 SPECIES  1

 TOTAL OF       1OUTER ITERATIONS
  MAXIMUM CHANGE FOR EACH ITERATION:
   MAX. CHANGE        NODE  MAX. CHANGE        NODE  MAX. CHANGE        NODE  MAX. CHANGE        NODE  MAX. CHANGE        NODE
 ------------------------------------------------------------------------------------------------------------------------------------
   0.71630E-11,        191

  MAXIMUM CHANGE FOR CLN NODE AT EACH ITERATION:
   MAX. CHANGE    CLN-CELL  MAX. CHANGE    CLN-CELL  MAX. CHANGE    CLN-CELL  MAX. CHANGE    CLN-CELL  MAX. CHANGE    CLN-CELL
 ------------------------------------------------------------------------------------------------------------------------------------
   0.95809E-09,          2
     TRANSPORT SOLUTION COMPLETE FOR COMPONENT SPECIES NUMBER    1
     ------------------------------------------------------------
 UBUDSVU SAVING "    MASS STORAGE" ON UNIT 145 AT TIME STEP      6, STRESS PERIOD     11
 UBUDSVU SAVING "CLN MASS STORAGE" ON UNIT 145 AT TIME STEP      6, STRESS PERIOD     11
 UBUDSVU SAVING "CNST H MASS FLUX" ON UNIT 145 AT TIME STEP      6, STRESS PERIOD     11
 UBUDSVU SAVING "  WELL MASS FLUX" ON UNIT 145 AT TIME STEP      6, STRESS PERIOD     11

 TRANSPORT SOLUTION COMPLETE FOR ALL SPECIES, SORTING OUTPUT FOR CONCENTRATIONS AND MASS BALANCE
 ----------------------------------------------------------------------------------------------------
     TRANSPORT OUTPUT FOR COMPONENT SPECIES NUMBER    1
     ------------------------------------------------------------

 CONC WILL BE SAVED ON UNIT  132 AT END OF TIME STEP        6, STRESS PERIOD       11

 CLN CONC WILL BE SAVED ON UNIT  188 AT END OF TIME STEP   6, STRESS PERIOD   11
1
  VOLUMETRIC BUDGET FOR ENTIRE MODEL AT END OF TIME STEP       6 IN STRESS PERIOD      11
  ---------------------------------------------------------------------------------------

     CUMULATIVE VOLUMES      L**3       RATES FOR THIS TIME STEP      L**3/T
     ------------------                 ------------------------

           IN:                                      IN:
           ---                                      ---
        MASS STORAGE =         155.7379          MASS STORAGE =           0.5000
    CNST H MASS FLUX =           0.0000      CNST H MASS FLUX =           0.0000
      WELL MASS FLUX =           0.0000        WELL MASS FLUX =           0.0000

            TOTAL IN =         155.7379              TOTAL IN =           0.5000

          OUT:                                     OUT:
          ----                                     ----
        MASS STORAGE =           0.2827          MASS STORAGE =       3.8760E-10
    CNST H MASS FLUX =           0.0000      CNST H MASS FLUX =           0.0000
      WELL MASS FLUX =         155.4552        WELL MASS FLUX =           0.5000

           TOTAL OUT =         155.7379             TOTAL OUT =           0.5000

            IN - OUT =       1.1937E-10              IN - OUT =      -3.8760E-10

 PERCENT DISCREPANCY =           0.00     PERCENT DISCREPANCY =          -0.00






          TIME SUMMARY AT END OF TIME STEP         6 IN STRESS PERIOD        11
                    SECONDS     MINUTES      HOURS       DAYS        YEARS
                    -----------------------------------------------------------
   TIME STEP LENGTH 2.48461E+05  4141.0      69.017      2.8757     7.87326E-03
 STRESS PERIOD TIME 9.91512E+05  16525.      275.42      11.476     3.14191E-02
         TOTAL TIME 2.69115E+07 4.48525E+05  7475.4      311.48     0.85277    
1
 -------------------------------------------------------------------------------------
 
 SOLVING FOR HEAD 

 Outer-Iteration  Inner-Iteration  Backtracking  Number of        Incoming       Outgoing  Maximum HeadChange      Maximum Head Change
     Number           Count           Flag       Backtracks       Residual       Residual           Value              Location
        1                             0             0          0.389212E-01     0.389212E-01
        1                6                                                                       -0.163651                   400           GWF-node number
        1                6                                                                       -0.153667                     3           CLN-node number
        2                             0             0          0.211288E-14     0.211288E-14
        2                1                                                                        0.544932E-07               401           GWF-node number
        2                1                                                                       -0.237560E-07                 3           CLN-node number
     2 CALLS TO SPARSE MATRIX SOLVER PACKAGE  IN FLOW TIME STEP       7 STRESS PERIOD      11

 TOTAL OF       2OUTER ITERATIONS
  MAXIMUM CHANGE FOR EACH ITERATION:
   MAX. CHANGE        NODE  MAX. CHANGE        NODE  MAX. CHANGE        NODE  MAX. CHANGE        NODE  MAX. CHANGE        NODE
 ------------------------------------------------------------------------------------------------------------------------------------
  -0.16365    ,        400  0.54493E-07,        401

  MAXIMUM CHANGE FOR CLN NODE AT EACH ITERATION:
   MAX. CHANGE    CLN-CELL  MAX. CHANGE    CLN-CELL  MAX. CHANGE    CLN-CELL  MAX. CHANGE    CLN-CELL  MAX. CHANGE    CLN-CELL
 ------------------------------------------------------------------------------------------------------------------------------------
  -0.15367    ,          3 -0.23756E-07,          3

 HEAD/DRAWDOWN PRINTOUT FLAG = 1     TOTAL BUDGET PRINTOUT FLAG = 1
 CELL-BY-CELL FLOW TERM FLAG = 1
 CONCENTRATION PRINTOUT FLAG = 1

 OUTPUT FLAGS FOR ALL LAYERS ARE THE SAME:
   HEAD    DRAWDOWN  HEAD  DRAWDOWN    CONC    CONC
 PRINTOUT  PRINTOUT  SAVE    SAVE    PRINTOUT  SAVE
 ---------------------------------------------------
     0         0       1       1       0       1
 UBUDSVU SAVING "         STORAGE" ON UNIT  50 AT TIME STEP      7, STRESS PERIOD     11
 UBUDSV SAVING "     CLN STORAGE" ON UNIT 144 AT TIME STEP      7, STRESS PERIOD      11
 UBUDSVU SAVING "   CONSTANT HEAD" ON UNIT  50 AT TIME STEP      7, STRESS PERIOD     11
 UBUDSVU SAVING "   FLOW JA FACE " ON UNIT  50 AT TIME STEP      7, STRESS PERIOD     11
 UBUDSVU SAVING "             CLN" ON UNIT  50 AT TIME STEP      7, STRESS PERIOD     11
 UBUDSVU SAVING "  CLN CONST HEAD" ON UNIT 144 AT TIME STEP      7, STRESS PERIOD     11
 UBUDSVU SAVING "   FLOW CLN FACE" ON UNIT 144 AT TIME STEP      7, STRESS PERIOD     11
 UBUDSVU SAVING "             GWF" ON UNIT 144 AT TIME STEP      7, STRESS PERIOD     11
 UBUDSVU SAVING "           WELLS" ON UNIT  50 AT TIME STEP      7, STRESS PERIOD     11
 UBUDSVU SAVING "           WELLS" ON UNIT 144 AT TIME STEP      7, STRESS PERIOD     11

 HEAD WILL BE SAVED ON UNIT       30 AT END OF TIME STEP        7, STRESS PERIOD       11

 DRAWDOWN WILL BE SAVED ON UNIT   31 AT END OF TIME STEP   7, STRESS PERIOD   11

 CLN HEAD WILL BE SAVED ON UNIT   77 AT END OF TIME STEP   7, STRESS PERIOD   11
1
  VOLUMETRIC BUDGET FOR ENTIRE MODEL AT END OF TIME STEP       7 IN STRESS PERIOD      11
  ---------------------------------------------------------------------------------------

     CUMULATIVE VOLUMES      L**3       RATES FOR THIS TIME STEP      L**3/T
     ------------------                 ------------------------

           IN:                                      IN:
           ---                                      ---
             STORAGE =        1574.6334               STORAGE =           5.0000
         CLN STORAGE =           0.0000           CLN STORAGE =           0.0000
       CONSTANT HEAD =           0.0000         CONSTANT HEAD =           0.0000
      CLN CONST HEAD =           0.0000        CLN CONST HEAD =           0.0000
               WELLS =           0.0000                 WELLS =           0.0000

            TOTAL IN =        1574.6334              TOTAL IN =           5.0000

          OUT:                                     OUT:
          ----                                     ----
             STORAGE =           0.0000               STORAGE =           0.0000
         CLN STORAGE =           0.0000           CLN STORAGE =           0.0000
       CONSTANT HEAD =           0.0000         CONSTANT HEAD =           0.0000
      CLN CONST HEAD =           0.0000        CLN CONST HEAD =           0.0000
               WELLS =        1574.6334                 WELLS =           5.0000

           TOTAL OUT =        1574.6334             TOTAL OUT =           5.0000

            IN - OUT =       1.5659E-05              IN - OUT =       2.9963E-08

 PERCENT DISCREPANCY =           0.00     PERCENT DISCREPANCY =           0.00






          TIME SUMMARY AT END OF TIME STEP         7 IN STRESS PERIOD        11
                    SECONDS     MINUTES      HOURS       DAYS        YEARS
                    -----------------------------------------------------------
   TIME STEP LENGTH 2.98153E+05  4969.2      82.820      3.4509     9.44791E-03
 STRESS PERIOD TIME 1.28967E+06  21494.      358.24      14.927     4.08670E-02
         TOTAL TIME 2.72097E+07 4.53494E+05  7558.2      314.93     0.86222    
1
 ------------------------------------------------------------------------------------------------------------
 
 SOLVING FOR TRANSPORT 

 ------------------------------------------------------------------------------------------------------------------------
     1 CALLS TO SPARSE MATRIX SOLVER PACKAGE IN TRANSPORT TIME STEP       7 STRESS PERIOD      11 SPECIES  1

 TOTAL OF       1OUTER ITERATIONS
  MAXIMUM CHANGE FOR EACH ITERATION:
   MAX. CHANGE        NODE  MAX. CHANGE        NODE  MAX. CHANGE        NODE  MAX. CHANGE        NODE  MAX. CHANGE        NODE
 ------------------------------------------------------------------------------------------------------------------------------------
  -0.87870E-11,        191

  MAXIMUM CHANGE FOR CLN NODE AT EACH ITERATION:
   MAX. CHANGE    CLN-CELL  MAX. CHANGE    CLN-CELL  MAX. CHANGE    CLN-CELL  MAX. CHANGE    CLN-CELL  MAX. CHANGE    CLN-CELL
 ------------------------------------------------------------------------------------------------------------------------------------
  -0.30940E-09,          2
     TRANSPORT SOLUTION COMPLETE FOR COMPONENT SPECIES NUMBER    1
     ------------------------------------------------------------
 UBUDSVU SAVING "    MASS STORAGE" ON UNIT 145 AT TIME STEP      7, STRESS PERIOD     11
 UBUDSVU SAVING "CLN MASS STORAGE" ON UNIT 145 AT TIME STEP      7, STRESS PERIOD     11
 UBUDSVU SAVING "CNST H MASS FLUX" ON UNIT 145 AT TIME STEP      7, STRESS PERIOD     11
 UBUDSVU SAVING "  WELL MASS FLUX" ON UNIT 145 AT TIME STEP      7, STRESS PERIOD     11

 TRANSPORT SOLUTION COMPLETE FOR ALL SPECIES, SORTING OUTPUT FOR CONCENTRATIONS AND MASS BALANCE
 ----------------------------------------------------------------------------------------------------
     TRANSPORT OUTPUT FOR COMPONENT SPECIES NUMBER    1
     ------------------------------------------------------------

 CONC WILL BE SAVED ON UNIT  132 AT END OF TIME STEP        7, STRESS PERIOD       11

 CLN CONC WILL BE SAVED ON UNIT  188 AT END OF TIME STEP   7, STRESS PERIOD   11
1
  VOLUMETRIC BUDGET FOR ENTIRE MODEL AT END OF TIME STEP       7 IN STRESS PERIOD      11
  ---------------------------------------------------------------------------------------

     CUMULATIVE VOLUMES      L**3       RATES FOR THIS TIME STEP      L**3/T
     ------------------                 ------------------------

           IN:                                      IN:
           ---                                      ---
        MASS STORAGE =         157.4633          MASS STORAGE =           0.5000
    CNST H MASS FLUX =           0.0000      CNST H MASS FLUX =           0.0000
      WELL MASS FLUX =           0.0000        WELL MASS FLUX =           0.0000

            TOTAL IN =         157.4633              TOTAL IN =           0.5000

          OUT:                                     OUT:
          ----                                     ----
        MASS STORAGE =           0.2827          MASS STORAGE =       7.6845E-12
    CNST H MASS FLUX =           0.0000      CNST H MASS FLUX =           0.0000
      WELL MASS FLUX =         157.1806        WELL MASS FLUX =           0.5000

           TOTAL OUT =         157.4633             TOTAL OUT =           0.5000

            IN - OUT =       1.1656E-10              IN - OUT =      -7.6845E-12

 PERCENT DISCREPANCY =           0.00     PERCENT DISCREPANCY =          -0.00






          TIME SUMMARY AT END OF TIME STEP         7 IN STRESS PERIOD        11
                    SECONDS     MINUTES      HOURS       DAYS        YEARS
                    -----------------------------------------------------------
   TIME STEP LENGTH 2.98153E+05  4969.2      82.820      3.4509     9.44791E-03
 STRESS PERIOD TIME 1.28967E+06  21494.      358.24      14.927     4.08670E-02
         TOTAL TIME 2.72097E+07 4.53494E+05  7558.2      314.93     0.86222    
1
 -------------------------------------------------------------------------------------
 
 SOLVING FOR HEAD 

 Outer-Iteration  Inner-Iteration  Backtracking  Number of        Incoming       Outgoing  Maximum HeadChange      Maximum Head Change
     Number           Count           Flag       Backtracks       Residual       Residual           Value              Location
        1                             0             0          0.388372E-01     0.388372E-01
        1                6                                                                       -0.196005                   400           GWF-node number
        1                6                                                                       -0.184075                     3           CLN-node number
        2                             0             0          0.491104E-13     0.491104E-13
        2                1                                                                        0.156641E-06               401           GWF-node number
        2                1                                                                        0.350626E-07                 3           CLN-node number
     2 CALLS TO SPARSE MATRIX SOLVER PACKAGE  IN FLOW TIME STEP       8 STRESS PERIOD      11

 TOTAL OF       2OUTER ITERATIONS
  MAXIMUM CHANGE FOR EACH ITERATION:
   MAX. CHANGE        NODE  MAX. CHANGE        NODE  MAX. CHANGE        NODE  MAX. CHANGE        NODE  MAX. CHANGE        NODE
 ------------------------------------------------------------------------------------------------------------------------------------
  -0.19600    ,        400  0.15664E-06,        401

  MAXIMUM CHANGE FOR CLN NODE AT EACH ITERATION:
   MAX. CHANGE    CLN-CELL  MAX. CHANGE    CLN-CELL  MAX. CHANGE    CLN-CELL  MAX. CHANGE    CLN-CELL  MAX. CHANGE    CLN-CELL
 ------------------------------------------------------------------------------------------------------------------------------------
  -0.18407    ,          3  0.35063E-07,          3

 HEAD/DRAWDOWN PRINTOUT FLAG = 1     TOTAL BUDGET PRINTOUT FLAG = 1
 CELL-BY-CELL FLOW TERM FLAG = 1
 CONCENTRATION PRINTOUT FLAG = 1

 OUTPUT FLAGS FOR ALL LAYERS ARE THE SAME:
   HEAD    DRAWDOWN  HEAD  DRAWDOWN    CONC    CONC
 PRINTOUT  PRINTOUT  SAVE    SAVE    PRINTOUT  SAVE
 ---------------------------------------------------
     0         0       1       1       0       1
 UBUDSVU SAVING "         STORAGE" ON UNIT  50 AT TIME STEP      8, STRESS PERIOD     11
 UBUDSV SAVING "     CLN STORAGE" ON UNIT 144 AT TIME STEP      8, STRESS PERIOD      11
 UBUDSVU SAVING "   CONSTANT HEAD" ON UNIT  50 AT TIME STEP      8, STRESS PERIOD     11
 UBUDSVU SAVING "   FLOW JA FACE " ON UNIT  50 AT TIME STEP      8, STRESS PERIOD     11
 UBUDSVU SAVING "             CLN" ON UNIT  50 AT TIME STEP      8, STRESS PERIOD     11
 UBUDSVU SAVING "  CLN CONST HEAD" ON UNIT 144 AT TIME STEP      8, STRESS PERIOD     11
 UBUDSVU SAVING "   FLOW CLN FACE" ON UNIT 144 AT TIME STEP      8, STRESS PERIOD     11
 UBUDSVU SAVING "             GWF" ON UNIT 144 AT TIME STEP      8, STRESS PERIOD     11
 UBUDSVU SAVING "           WELLS" ON UNIT  50 AT TIME STEP      8, STRESS PERIOD     11
 UBUDSVU SAVING "           WELLS" ON UNIT 144 AT TIME STEP      8, STRESS PERIOD     11

 HEAD WILL BE SAVED ON UNIT       30 AT END OF TIME STEP        8, STRESS PERIOD       11

 DRAWDOWN WILL BE SAVED ON UNIT   31 AT END OF TIME STEP   8, STRESS PERIOD   11

 CLN HEAD WILL BE SAVED ON UNIT   77 AT END OF TIME STEP   8, STRESS PERIOD   11
1
  VOLUMETRIC BUDGET FOR ENTIRE MODEL AT END OF TIME STEP       8 IN STRESS PERIOD      11
  ---------------------------------------------------------------------------------------

     CUMULATIVE VOLUMES      L**3       RATES FOR THIS TIME STEP      L**3/T
     ------------------                 ------------------------

           IN:                                      IN:
           ---                                      ---
             STORAGE =        1595.3385               STORAGE =           5.0000
         CLN STORAGE =           0.0000           CLN STORAGE =           0.0000
       CONSTANT HEAD =           0.0000         CONSTANT HEAD =           0.0000
      CLN CONST HEAD =           0.0000        CLN CONST HEAD =           0.0000
               WELLS =           0.0000                 WELLS =           0.0000

            TOTAL IN =        1595.3385              TOTAL IN =           5.0000

          OUT:                                     OUT:
          ----                                     ----
             STORAGE =           0.0000               STORAGE =           0.0000
         CLN STORAGE =           0.0000           CLN STORAGE =           0.0000
       CONSTANT HEAD =           0.0000         CONSTANT HEAD =           0.0000
      CLN CONST HEAD =           0.0000        CLN CONST HEAD =           0.0000
               WELLS =        1595.3385                 WELLS =           5.0000

           TOTAL OUT =        1595.3385             TOTAL OUT =           5.0000

            IN - OUT =       1.5824E-05              IN - OUT =       3.9970E-08

 PERCENT DISCREPANCY =           0.00     PERCENT DISCREPANCY =           0.00






          TIME SUMMARY AT END OF TIME STEP         8 IN STRESS PERIOD        11
                    SECONDS     MINUTES      HOURS       DAYS        YEARS
                    -----------------------------------------------------------
   TIME STEP LENGTH 3.57784E+05  5963.1      99.384      4.1410     1.13375E-02
 STRESS PERIOD TIME 1.64745E+06  27457.      457.62      19.068     5.22045E-02
         TOTAL TIME 2.75674E+07 4.59457E+05  7657.6      319.07     0.87356    
1
 ------------------------------------------------------------------------------------------------------------
 
 SOLVING FOR TRANSPORT 

 ------------------------------------------------------------------------------------------------------------------------
     1 CALLS TO SPARSE MATRIX SOLVER PACKAGE IN TRANSPORT TIME STEP       8 STRESS PERIOD      11 SPECIES  1

 TOTAL OF       1OUTER ITERATIONS
  MAXIMUM CHANGE FOR EACH ITERATION:
   MAX. CHANGE        NODE  MAX. CHANGE        NODE  MAX. CHANGE        NODE  MAX. CHANGE        NODE  MAX. CHANGE        NODE
 ------------------------------------------------------------------------------------------------------------------------------------
   0.21093E-11,         46

  MAXIMUM CHANGE FOR CLN NODE AT EACH ITERATION:
   MAX. CHANGE    CLN-CELL  MAX. CHANGE    CLN-CELL  MAX. CHANGE    CLN-CELL  MAX. CHANGE    CLN-CELL  MAX. CHANGE    CLN-CELL
 ------------------------------------------------------------------------------------------------------------------------------------
   0.27046E-09,          2
     TRANSPORT SOLUTION COMPLETE FOR COMPONENT SPECIES NUMBER    1
     ------------------------------------------------------------
 UBUDSVU SAVING "    MASS STORAGE" ON UNIT 145 AT TIME STEP      8, STRESS PERIOD     11
 UBUDSVU SAVING "CLN MASS STORAGE" ON UNIT 145 AT TIME STEP      8, STRESS PERIOD     11
 UBUDSVU SAVING "CNST H MASS FLUX" ON UNIT 145 AT TIME STEP      8, STRESS PERIOD     11
 UBUDSVU SAVING "  WELL MASS FLUX" ON UNIT 145 AT TIME STEP      8, STRESS PERIOD     11

 TRANSPORT SOLUTION COMPLETE FOR ALL SPECIES, SORTING OUTPUT FOR CONCENTRATIONS AND MASS BALANCE
 ----------------------------------------------------------------------------------------------------
     TRANSPORT OUTPUT FOR COMPONENT SPECIES NUMBER    1
     ------------------------------------------------------------

 CONC WILL BE SAVED ON UNIT  132 AT END OF TIME STEP        8, STRESS PERIOD       11

 CLN CONC WILL BE SAVED ON UNIT  188 AT END OF TIME STEP   8, STRESS PERIOD   11
1
  VOLUMETRIC BUDGET FOR ENTIRE MODEL AT END OF TIME STEP       8 IN STRESS PERIOD      11
  ---------------------------------------------------------------------------------------

     CUMULATIVE VOLUMES      L**3       RATES FOR THIS TIME STEP      L**3/T
     ------------------                 ------------------------

           IN:                                      IN:
           ---                                      ---
        MASS STORAGE =         159.5339          MASS STORAGE =           0.5000
    CNST H MASS FLUX =           0.0000      CNST H MASS FLUX =           0.0000
      WELL MASS FLUX =           0.0000        WELL MASS FLUX =           0.0000

            TOTAL IN =         159.5339              TOTAL IN =           0.5000

          OUT:                                     OUT:
          ----                                     ----
        MASS STORAGE =           0.2827          MASS STORAGE =       4.1788E-11
    CNST H MASS FLUX =           0.0000      CNST H MASS FLUX =           0.0000
      WELL MASS FLUX =         159.2511        WELL MASS FLUX =           0.5000

           TOTAL OUT =         159.5339             TOTAL OUT =           0.5000

            IN - OUT =       1.1622E-10              IN - OUT =      -4.1788E-11

 PERCENT DISCREPANCY =           0.00     PERCENT DISCREPANCY =          -0.00






          TIME SUMMARY AT END OF TIME STEP         8 IN STRESS PERIOD        11
                    SECONDS     MINUTES      HOURS       DAYS        YEARS
                    -----------------------------------------------------------
   TIME STEP LENGTH 3.57784E+05  5963.1      99.384      4.1410     1.13375E-02
 STRESS PERIOD TIME 1.64745E+06  27457.      457.62      19.068     5.22045E-02
         TOTAL TIME 2.75674E+07 4.59457E+05  7657.6      319.07     0.87356    
1
 -------------------------------------------------------------------------------------
 
 SOLVING FOR HEAD 

 Outer-Iteration  Inner-Iteration  Backtracking  Number of        Incoming       Outgoing  Maximum HeadChange      Maximum Head Change
     Number           Count           Flag       Backtracks       Residual       Residual           Value              Location
        1                             0             0          0.387375E-01     0.387375E-01
        1                6                                                                       -0.234666                   400           GWF-node number
        1                6                                                                       -0.220426                     3           CLN-node number
        2                             0             0          0.550154E-13     0.550154E-13
        2                1                                                                        0.441612E-06               417           GWF-node number
        2                1                                                                        0.173181E-06                 3           CLN-node number
     2 CALLS TO SPARSE MATRIX SOLVER PACKAGE  IN FLOW TIME STEP       9 STRESS PERIOD      11

 TOTAL OF       2OUTER ITERATIONS
  MAXIMUM CHANGE FOR EACH ITERATION:
   MAX. CHANGE        NODE  MAX. CHANGE        NODE  MAX. CHANGE        NODE  MAX. CHANGE        NODE  MAX. CHANGE        NODE
 ------------------------------------------------------------------------------------------------------------------------------------
  -0.23467    ,        400  0.44161E-06,        417

  MAXIMUM CHANGE FOR CLN NODE AT EACH ITERATION:
   MAX. CHANGE    CLN-CELL  MAX. CHANGE    CLN-CELL  MAX. CHANGE    CLN-CELL  MAX. CHANGE    CLN-CELL  MAX. CHANGE    CLN-CELL
 ------------------------------------------------------------------------------------------------------------------------------------
  -0.22043    ,          3  0.17318E-06,          3

 HEAD/DRAWDOWN PRINTOUT FLAG = 1     TOTAL BUDGET PRINTOUT FLAG = 1
 CELL-BY-CELL FLOW TERM FLAG = 1
 CONCENTRATION PRINTOUT FLAG = 1

 OUTPUT FLAGS FOR ALL LAYERS ARE THE SAME:
   HEAD    DRAWDOWN  HEAD  DRAWDOWN    CONC    CONC
 PRINTOUT  PRINTOUT  SAVE    SAVE    PRINTOUT  SAVE
 ---------------------------------------------------
     0         0       1       1       0       1
 UBUDSVU SAVING "         STORAGE" ON UNIT  50 AT TIME STEP      9, STRESS PERIOD     11
 UBUDSV SAVING "     CLN STORAGE" ON UNIT 144 AT TIME STEP      9, STRESS PERIOD      11
 UBUDSVU SAVING "   CONSTANT HEAD" ON UNIT  50 AT TIME STEP      9, STRESS PERIOD     11
 UBUDSVU SAVING "   FLOW JA FACE " ON UNIT  50 AT TIME STEP      9, STRESS PERIOD     11
 UBUDSVU SAVING "             CLN" ON UNIT  50 AT TIME STEP      9, STRESS PERIOD     11
 UBUDSVU SAVING "  CLN CONST HEAD" ON UNIT 144 AT TIME STEP      9, STRESS PERIOD     11
 UBUDSVU SAVING "   FLOW CLN FACE" ON UNIT 144 AT TIME STEP      9, STRESS PERIOD     11
 UBUDSVU SAVING "             GWF" ON UNIT 144 AT TIME STEP      9, STRESS PERIOD     11
 UBUDSVU SAVING "           WELLS" ON UNIT  50 AT TIME STEP      9, STRESS PERIOD     11
 UBUDSVU SAVING "           WELLS" ON UNIT 144 AT TIME STEP      9, STRESS PERIOD     11

 HEAD WILL BE SAVED ON UNIT       30 AT END OF TIME STEP        9, STRESS PERIOD       11

 DRAWDOWN WILL BE SAVED ON UNIT   31 AT END OF TIME STEP   9, STRESS PERIOD   11

 CLN HEAD WILL BE SAVED ON UNIT   77 AT END OF TIME STEP   9, STRESS PERIOD   11
1
  VOLUMETRIC BUDGET FOR ENTIRE MODEL AT END OF TIME STEP       9 IN STRESS PERIOD      11
  ---------------------------------------------------------------------------------------

     CUMULATIVE VOLUMES      L**3       RATES FOR THIS TIME STEP      L**3/T
     ------------------                 ------------------------

           IN:                                      IN:
           ---                                      ---
             STORAGE =        1620.1846               STORAGE =           5.0000
         CLN STORAGE =           0.0000           CLN STORAGE =           0.0000
       CONSTANT HEAD =           0.0000         CONSTANT HEAD =           0.0000
      CLN CONST HEAD =           0.0000        CLN CONST HEAD =           0.0000
               WELLS =           0.0000                 WELLS =           0.0000

            TOTAL IN =        1620.1846              TOTAL IN =           5.0000

          OUT:                                     OUT:
          ----                                     ----
             STORAGE =           0.0000               STORAGE =           0.0000
         CLN STORAGE =           0.0000           CLN STORAGE =           0.0000
       CONSTANT HEAD =           0.0000         CONSTANT HEAD =           0.0000
      CLN CONST HEAD =           0.0000        CLN CONST HEAD =           0.0000
               WELLS =        1620.1846                 WELLS =           5.0000

           TOTAL OUT =        1620.1846             TOTAL OUT =           5.0000

            IN - OUT =       1.5722E-05              IN - OUT =      -2.0565E-08

 PERCENT DISCREPANCY =           0.00     PERCENT DISCREPANCY =          -0.00






          TIME SUMMARY AT END OF TIME STEP         9 IN STRESS PERIOD        11
                    SECONDS     MINUTES      HOURS       DAYS        YEARS
                    -----------------------------------------------------------
   TIME STEP LENGTH 4.29341E+05  7155.7      119.26      4.9692     1.36050E-02
 STRESS PERIOD TIME 2.07679E+06  34613.      576.89      24.037     6.58095E-02
         TOTAL TIME 2.79968E+07 4.66613E+05  7776.9      324.04     0.88716    
1
 ------------------------------------------------------------------------------------------------------------
 
 SOLVING FOR TRANSPORT 

 ------------------------------------------------------------------------------------------------------------------------
     1 CALLS TO SPARSE MATRIX SOLVER PACKAGE IN TRANSPORT TIME STEP       9 STRESS PERIOD      11 SPECIES  1

 TOTAL OF       1OUTER ITERATIONS
  MAXIMUM CHANGE FOR EACH ITERATION:
   MAX. CHANGE        NODE  MAX. CHANGE        NODE  MAX. CHANGE        NODE  MAX. CHANGE        NODE  MAX. CHANGE        NODE
 ------------------------------------------------------------------------------------------------------------------------------------
   0.25801E-10,        191

  MAXIMUM CHANGE FOR CLN NODE AT EACH ITERATION:
   MAX. CHANGE    CLN-CELL  MAX. CHANGE    CLN-CELL  MAX. CHANGE    CLN-CELL  MAX. CHANGE    CLN-CELL  MAX. CHANGE    CLN-CELL
 ------------------------------------------------------------------------------------------------------------------------------------
  -0.89720E-09,          1
     TRANSPORT SOLUTION COMPLETE FOR COMPONENT SPECIES NUMBER    1
     ------------------------------------------------------------
 UBUDSVU SAVING "    MASS STORAGE" ON UNIT 145 AT TIME STEP      9, STRESS PERIOD     11
 UBUDSVU SAVING "CLN MASS STORAGE" ON UNIT 145 AT TIME STEP      9, STRESS PERIOD     11
 UBUDSVU SAVING "CNST H MASS FLUX" ON UNIT 145 AT TIME STEP      9, STRESS PERIOD     11
 UBUDSVU SAVING "  WELL MASS FLUX" ON UNIT 145 AT TIME STEP      9, STRESS PERIOD     11

 TRANSPORT SOLUTION COMPLETE FOR ALL SPECIES, SORTING OUTPUT FOR CONCENTRATIONS AND MASS BALANCE
 ----------------------------------------------------------------------------------------------------
     TRANSPORT OUTPUT FOR COMPONENT SPECIES NUMBER    1
     ------------------------------------------------------------

 CONC WILL BE SAVED ON UNIT  132 AT END OF TIME STEP        9, STRESS PERIOD       11

 CLN CONC WILL BE SAVED ON UNIT  188 AT END OF TIME STEP   9, STRESS PERIOD   11
1
  VOLUMETRIC BUDGET FOR ENTIRE MODEL AT END OF TIME STEP       9 IN STRESS PERIOD      11
  ---------------------------------------------------------------------------------------

     CUMULATIVE VOLUMES      L**3       RATES FOR THIS TIME STEP      L**3/T
     ------------------                 ------------------------

           IN:                                      IN:
           ---                                      ---
        MASS STORAGE =         162.0185          MASS STORAGE =           0.5000
    CNST H MASS FLUX =           0.0000      CNST H MASS FLUX =           0.0000
      WELL MASS FLUX =           0.0000        WELL MASS FLUX =           0.0000

            TOTAL IN =         162.0185              TOTAL IN =           0.5000

          OUT:                                     OUT:
          ----                                     ----
        MASS STORAGE =           0.2827          MASS STORAGE =       1.0252E-11
    CNST H MASS FLUX =           0.0000      CNST H MASS FLUX =           0.0000
      WELL MASS FLUX =         161.7357        WELL MASS FLUX =           0.5000

           TOTAL OUT =         162.0185             TOTAL OUT =           0.5000

            IN - OUT =       1.3324E-10              IN - OUT =      -1.0252E-11

 PERCENT DISCREPANCY =           0.00     PERCENT DISCREPANCY =          -0.00






          TIME SUMMARY AT END OF TIME STEP         9 IN STRESS PERIOD        11
                    SECONDS     MINUTES      HOURS       DAYS        YEARS
                    -----------------------------------------------------------
   TIME STEP LENGTH 4.29341E+05  7155.7      119.26      4.9692     1.36050E-02
 STRESS PERIOD TIME 2.07679E+06  34613.      576.89      24.037     6.58095E-02
         TOTAL TIME 2.79968E+07 4.66613E+05  7776.9      324.04     0.88716    
1
 -------------------------------------------------------------------------------------
 
 SOLVING FOR HEAD 

 Outer-Iteration  Inner-Iteration  Backtracking  Number of        Incoming       Outgoing  Maximum HeadChange      Maximum Head Change
     Number           Count           Flag       Backtracks       Residual       Residual           Value              Location
        1                             0             0          0.386194E-01     0.386194E-01
        1                7                                                                       -0.280827                   400           GWF-node number
        1                7                                                                       -0.263849                     3           CLN-node number
        2                             0             0          0.116483E-14     0.116483E-14
        2                1                                                                       -0.627901E-07               417           GWF-node number
        2                1                                                                       -0.593237E-07                 3           CLN-node number
     2 CALLS TO SPARSE MATRIX SOLVER PACKAGE  IN FLOW TIME STEP      10 STRESS PERIOD      11

 TOTAL OF       2OUTER ITERATIONS
  MAXIMUM CHANGE FOR EACH ITERATION:
   MAX. CHANGE        NODE  MAX. CHANGE        NODE  MAX. CHANGE        NODE  MAX. CHANGE        NODE  MAX. CHANGE        NODE
 ------------------------------------------------------------------------------------------------------------------------------------
  -0.28083    ,        400 -0.62790E-07,        417

  MAXIMUM CHANGE FOR CLN NODE AT EACH ITERATION:
   MAX. CHANGE    CLN-CELL  MAX. CHANGE    CLN-CELL  MAX. CHANGE    CLN-CELL  MAX. CHANGE    CLN-CELL  MAX. CHANGE    CLN-CELL
 ------------------------------------------------------------------------------------------------------------------------------------
  -0.26385    ,          3 -0.59324E-07,          3

 HEAD/DRAWDOWN PRINTOUT FLAG = 1     TOTAL BUDGET PRINTOUT FLAG = 1
 CELL-BY-CELL FLOW TERM FLAG = 1
 CONCENTRATION PRINTOUT FLAG = 1

 OUTPUT FLAGS FOR ALL LAYERS ARE THE SAME:
   HEAD    DRAWDOWN  HEAD  DRAWDOWN    CONC    CONC
 PRINTOUT  PRINTOUT  SAVE    SAVE    PRINTOUT  SAVE
 ---------------------------------------------------
     0         0       1       1       0       1
 UBUDSVU SAVING "         STORAGE" ON UNIT  50 AT TIME STEP     10, STRESS PERIOD     11
 UBUDSV SAVING "     CLN STORAGE" ON UNIT 144 AT TIME STEP     10, STRESS PERIOD      11
 UBUDSVU SAVING "   CONSTANT HEAD" ON UNIT  50 AT TIME STEP     10, STRESS PERIOD     11
 UBUDSVU SAVING "   FLOW JA FACE " ON UNIT  50 AT TIME STEP     10, STRESS PERIOD     11
 UBUDSVU SAVING "             CLN" ON UNIT  50 AT TIME STEP     10, STRESS PERIOD     11
 UBUDSVU SAVING "  CLN CONST HEAD" ON UNIT 144 AT TIME STEP     10, STRESS PERIOD     11
 UBUDSVU SAVING "   FLOW CLN FACE" ON UNIT 144 AT TIME STEP     10, STRESS PERIOD     11
 UBUDSVU SAVING "             GWF" ON UNIT 144 AT TIME STEP     10, STRESS PERIOD     11
 UBUDSVU SAVING "           WELLS" ON UNIT  50 AT TIME STEP     10, STRESS PERIOD     11
 UBUDSVU SAVING "           WELLS" ON UNIT 144 AT TIME STEP     10, STRESS PERIOD     11

 HEAD WILL BE SAVED ON UNIT       30 AT END OF TIME STEP       10, STRESS PERIOD       11

 DRAWDOWN WILL BE SAVED ON UNIT   31 AT END OF TIME STEP  10, STRESS PERIOD   11

 CLN HEAD WILL BE SAVED ON UNIT   77 AT END OF TIME STEP  10, STRESS PERIOD   11
1
  VOLUMETRIC BUDGET FOR ENTIRE MODEL AT END OF TIME STEP      10 IN STRESS PERIOD      11
  ---------------------------------------------------------------------------------------

     CUMULATIVE VOLUMES      L**3       RATES FOR THIS TIME STEP      L**3/T
     ------------------                 ------------------------

           IN:                                      IN:
           ---                                      ---
             STORAGE =        1650.0000               STORAGE =           5.0000
         CLN STORAGE =           0.0000           CLN STORAGE =           0.0000
       CONSTANT HEAD =           0.0000         CONSTANT HEAD =           0.0000
      CLN CONST HEAD =           0.0000        CLN CONST HEAD =           0.0000
               WELLS =           0.0000                 WELLS =           0.0000

            TOTAL IN =        1650.0000              TOTAL IN =           5.0000

          OUT:                                     OUT:
          ----                                     ----
             STORAGE =           0.0000               STORAGE =           0.0000
         CLN STORAGE =           0.0000           CLN STORAGE =           0.0000
       CONSTANT HEAD =           0.0000         CONSTANT HEAD =           0.0000
      CLN CONST HEAD =           0.0000        CLN CONST HEAD =           0.0000
               WELLS =        1649.9999                 WELLS =           5.0000

           TOTAL OUT =        1649.9999             TOTAL OUT =           5.0000

            IN - OUT =       1.6010E-05              IN - OUT =       4.8281E-08

 PERCENT DISCREPANCY =           0.00     PERCENT DISCREPANCY =           0.00






          TIME SUMMARY AT END OF TIME STEP        10 IN STRESS PERIOD        11
                    SECONDS     MINUTES      HOURS       DAYS        YEARS
                    -----------------------------------------------------------
   TIME STEP LENGTH 5.15209E+05  8586.8      143.11      5.9631     1.63260E-02
 STRESS PERIOD TIME 2.59200E+06  43200.      720.00      30.000     8.21355E-02
         TOTAL TIME 2.85120E+07 4.75200E+05  7920.0      330.00     0.90349    
1
 ------------------------------------------------------------------------------------------------------------
 
 SOLVING FOR TRANSPORT 

 ------------------------------------------------------------------------------------------------------------------------
     1 CALLS TO SPARSE MATRIX SOLVER PACKAGE IN TRANSPORT TIME STEP      10 STRESS PERIOD      11 SPECIES  1

 TOTAL OF       1OUTER ITERATIONS
  MAXIMUM CHANGE FOR EACH ITERATION:
   MAX. CHANGE        NODE  MAX. CHANGE        NODE  MAX. CHANGE        NODE  MAX. CHANGE        NODE  MAX. CHANGE        NODE
 ------------------------------------------------------------------------------------------------------------------------------------
  -0.24093E-10,        191

  MAXIMUM CHANGE FOR CLN NODE AT EACH ITERATION:
   MAX. CHANGE    CLN-CELL  MAX. CHANGE    CLN-CELL  MAX. CHANGE    CLN-CELL  MAX. CHANGE    CLN-CELL  MAX. CHANGE    CLN-CELL
 ------------------------------------------------------------------------------------------------------------------------------------
   0.65387E-09,          3
     TRANSPORT SOLUTION COMPLETE FOR COMPONENT SPECIES NUMBER    1
     ------------------------------------------------------------
 UBUDSVU SAVING "    MASS STORAGE" ON UNIT 145 AT TIME STEP     10, STRESS PERIOD     11
 UBUDSVU SAVING "CLN MASS STORAGE" ON UNIT 145 AT TIME STEP     10, STRESS PERIOD     11
 UBUDSVU SAVING "CNST H MASS FLUX" ON UNIT 145 AT TIME STEP     10, STRESS PERIOD     11
 UBUDSVU SAVING "  WELL MASS FLUX" ON UNIT 145 AT TIME STEP     10, STRESS PERIOD     11

 TRANSPORT SOLUTION COMPLETE FOR ALL SPECIES, SORTING OUTPUT FOR CONCENTRATIONS AND MASS BALANCE
 ----------------------------------------------------------------------------------------------------
     TRANSPORT OUTPUT FOR COMPONENT SPECIES NUMBER    1
     ------------------------------------------------------------

 CONC WILL BE SAVED ON UNIT  132 AT END OF TIME STEP       10, STRESS PERIOD       11

 CLN CONC WILL BE SAVED ON UNIT  188 AT END OF TIME STEP  10, STRESS PERIOD   11
1
  VOLUMETRIC BUDGET FOR ENTIRE MODEL AT END OF TIME STEP      10 IN STRESS PERIOD      11
  ---------------------------------------------------------------------------------------

     CUMULATIVE VOLUMES      L**3       RATES FOR THIS TIME STEP      L**3/T
     ------------------                 ------------------------

           IN:                                      IN:
           ---                                      ---
        MASS STORAGE =         165.0000          MASS STORAGE =           0.5000
    CNST H MASS FLUX =           0.0000      CNST H MASS FLUX =           0.0000
      WELL MASS FLUX =           0.0000        WELL MASS FLUX =           0.0000

            TOTAL IN =         165.0000              TOTAL IN =           0.5000

          OUT:                                     OUT:
          ----                                     ----
        MASS STORAGE =           0.2827          MASS STORAGE =       1.5027E-10
    CNST H MASS FLUX =           0.0000      CNST H MASS FLUX =           0.0000
      WELL MASS FLUX =         164.7173        WELL MASS FLUX =           0.5000

           TOTAL OUT =         165.0000             TOTAL OUT =           0.5000

            IN - OUT =       9.7970E-11              IN - OUT =      -1.5027E-10

 PERCENT DISCREPANCY =           0.00     PERCENT DISCREPANCY =          -0.00






          TIME SUMMARY AT END OF TIME STEP        10 IN STRESS PERIOD        11
                    SECONDS     MINUTES      HOURS       DAYS        YEARS
                    -----------------------------------------------------------
   TIME STEP LENGTH 5.15209E+05  8586.8      143.11      5.9631     1.63260E-02
 STRESS PERIOD TIME 2.59200E+06  43200.      720.00      30.000     8.21355E-02
         TOTAL TIME 2.85120E+07 4.75200E+05  7920.0      330.00     0.90349    
1
1
                            STRESS PERIOD NO.   12, LENGTH =   30.00000    
                            -----------------------------------------------

                              NUMBER OF TIME STEPS =        10

                               MULTIPLIER FOR DELT =     1.200

                            INITIAL TIME STEP SIZE =   1.155682    

 WEL -- WELL PACKAGE, VERSION 7, 5/2/2005 INPUT READ FROM UNIT   12

 WELL NO.  CLN-NODE       STRESS FACTOR         C01             
 ---------------------------------------------------------------
        1            3      -5.000           0.000           0.000    

      1 WELL 
 -------------------------------------------------------------------------------------
 
 SOLVING FOR HEAD 

 Outer-Iteration  Inner-Iteration  Backtracking  Number of        Incoming       Outgoing  Maximum HeadChange      Maximum Head Change
     Number           Count           Flag       Backtracks       Residual       Residual           Value              Location
        1                             0             0          0.384799E-01     0.384799E-01
        1                5                                                                       -0.543971E-01               400           GWF-node number
        1                5                                                                       -0.511109E-01                 1           CLN-node number
        2                             0             0          0.212055E-14     0.212055E-14
        2                1                                                                       -0.137802E-07               190           GWF-node number
        2                1                                                                       -0.371267E-07                 3           CLN-node number


     2 CALLS TO SPARSE MATRIX SOLVER PACKAGE  IN FLOW TIME STEP       1 STRESS PERIOD      12

 TOTAL OF       2OUTER ITERATIONS
  MAXIMUM CHANGE FOR EACH ITERATION:
   MAX. CHANGE        NODE  MAX. CHANGE        NODE  MAX. CHANGE        NODE  MAX. CHANGE        NODE  MAX. CHANGE        NODE
 ------------------------------------------------------------------------------------------------------------------------------------
  -0.54397E-01,        400 -0.13780E-07,        190

  MAXIMUM CHANGE FOR CLN NODE AT EACH ITERATION:
   MAX. CHANGE    CLN-CELL  MAX. CHANGE    CLN-CELL  MAX. CHANGE    CLN-CELL  MAX. CHANGE    CLN-CELL  MAX. CHANGE    CLN-CELL
 ------------------------------------------------------------------------------------------------------------------------------------
  -0.51111E-01,          1 -0.37127E-07,          3

 HEAD/DRAWDOWN PRINTOUT FLAG = 1     TOTAL BUDGET PRINTOUT FLAG = 1
 CELL-BY-CELL FLOW TERM FLAG = 1
 CONCENTRATION PRINTOUT FLAG = 1

 OUTPUT FLAGS FOR ALL LAYERS ARE THE SAME:
   HEAD    DRAWDOWN  HEAD  DRAWDOWN    CONC    CONC
 PRINTOUT  PRINTOUT  SAVE    SAVE    PRINTOUT  SAVE
 ---------------------------------------------------
     0         0       1       1       0       1
 UBUDSVU SAVING "         STORAGE" ON UNIT  50 AT TIME STEP      1, STRESS PERIOD     12
 UBUDSV SAVING "     CLN STORAGE" ON UNIT 144 AT TIME STEP      1, STRESS PERIOD      12
 UBUDSVU SAVING "   CONSTANT HEAD" ON UNIT  50 AT TIME STEP      1, STRESS PERIOD     12
 UBUDSVU SAVING "   FLOW JA FACE " ON UNIT  50 AT TIME STEP      1, STRESS PERIOD     12
 UBUDSVU SAVING "             CLN" ON UNIT  50 AT TIME STEP      1, STRESS PERIOD     12
 UBUDSVU SAVING "  CLN CONST HEAD" ON UNIT 144 AT TIME STEP      1, STRESS PERIOD     12
 UBUDSVU SAVING "   FLOW CLN FACE" ON UNIT 144 AT TIME STEP      1, STRESS PERIOD     12
 UBUDSVU SAVING "             GWF" ON UNIT 144 AT TIME STEP      1, STRESS PERIOD     12
 UBUDSVU SAVING "           WELLS" ON UNIT  50 AT TIME STEP      1, STRESS PERIOD     12
 UBUDSVU SAVING "           WELLS" ON UNIT 144 AT TIME STEP      1, STRESS PERIOD     12

 HEAD WILL BE SAVED ON UNIT       30 AT END OF TIME STEP        1, STRESS PERIOD       12

 DRAWDOWN WILL BE SAVED ON UNIT   31 AT END OF TIME STEP   1, STRESS PERIOD   12

 CLN HEAD WILL BE SAVED ON UNIT   77 AT END OF TIME STEP   1, STRESS PERIOD   12
1
  VOLUMETRIC BUDGET FOR ENTIRE MODEL AT END OF TIME STEP       1 IN STRESS PERIOD      12
  ---------------------------------------------------------------------------------------

     CUMULATIVE VOLUMES      L**3       RATES FOR THIS TIME STEP      L**3/T
     ------------------                 ------------------------

           IN:                                      IN:
           ---                                      ---
             STORAGE =        1655.7784               STORAGE =           5.0000
         CLN STORAGE =           0.0000           CLN STORAGE =           0.0000
       CONSTANT HEAD =           0.0000         CONSTANT HEAD =           0.0000
      CLN CONST HEAD =           0.0000        CLN CONST HEAD =           0.0000
               WELLS =           0.0000                 WELLS =           0.0000

            TOTAL IN =        1655.7784              TOTAL IN =           5.0000

          OUT:                                     OUT:
          ----                                     ----
             STORAGE =           0.0000               STORAGE =           0.0000
         CLN STORAGE =           0.0000           CLN STORAGE =           0.0000
       CONSTANT HEAD =           0.0000         CONSTANT HEAD =           0.0000
      CLN CONST HEAD =           0.0000        CLN CONST HEAD =           0.0000
               WELLS =        1655.7783                 WELLS =           5.0000

           TOTAL OUT =        1655.7783             TOTAL OUT =           5.0000

            IN - OUT =       1.6089E-05              IN - OUT =       6.8779E-08

 PERCENT DISCREPANCY =           0.00     PERCENT DISCREPANCY =           0.00






          TIME SUMMARY AT END OF TIME STEP         1 IN STRESS PERIOD        12
                    SECONDS     MINUTES      HOURS       DAYS        YEARS
                    -----------------------------------------------------------
   TIME STEP LENGTH  99851.      1664.2      27.736      1.1557     3.16409E-03
 STRESS PERIOD TIME  99851.      1664.2      27.736      1.1557     3.16409E-03
         TOTAL TIME 2.86118E+07 4.76864E+05  7947.7      331.16     0.90665    
1
 ------------------------------------------------------------------------------------------------------------
 
 SOLVING FOR TRANSPORT 

 ------------------------------------------------------------------------------------------------------------------------
     1 CALLS TO SPARSE MATRIX SOLVER PACKAGE IN TRANSPORT TIME STEP       1 STRESS PERIOD      12 SPECIES  1

 TOTAL OF       1OUTER ITERATIONS
  MAXIMUM CHANGE FOR EACH ITERATION:
   MAX. CHANGE        NODE  MAX. CHANGE        NODE  MAX. CHANGE        NODE  MAX. CHANGE        NODE  MAX. CHANGE        NODE
 ------------------------------------------------------------------------------------------------------------------------------------
  -0.32925E-11,        191

  MAXIMUM CHANGE FOR CLN NODE AT EACH ITERATION:
   MAX. CHANGE    CLN-CELL  MAX. CHANGE    CLN-CELL  MAX. CHANGE    CLN-CELL  MAX. CHANGE    CLN-CELL  MAX. CHANGE    CLN-CELL
 ------------------------------------------------------------------------------------------------------------------------------------
   0.60992E-09,          1
     TRANSPORT SOLUTION COMPLETE FOR COMPONENT SPECIES NUMBER    1
     ------------------------------------------------------------
 UBUDSVU SAVING "    MASS STORAGE" ON UNIT 145 AT TIME STEP      1, STRESS PERIOD     12
 UBUDSVU SAVING "CLN MASS STORAGE" ON UNIT 145 AT TIME STEP      1, STRESS PERIOD     12
 UBUDSVU SAVING "CNST H MASS FLUX" ON UNIT 145 AT TIME STEP      1, STRESS PERIOD     12
 UBUDSVU SAVING "  WELL MASS FLUX" ON UNIT 145 AT TIME STEP      1, STRESS PERIOD     12

 TRANSPORT SOLUTION COMPLETE FOR ALL SPECIES, SORTING OUTPUT FOR CONCENTRATIONS AND MASS BALANCE
 ----------------------------------------------------------------------------------------------------
     TRANSPORT OUTPUT FOR COMPONENT SPECIES NUMBER    1
     ------------------------------------------------------------

 CONC WILL BE SAVED ON UNIT  132 AT END OF TIME STEP        1, STRESS PERIOD       12

 CLN CONC WILL BE SAVED ON UNIT  188 AT END OF TIME STEP   1, STRESS PERIOD   12
1
  VOLUMETRIC BUDGET FOR ENTIRE MODEL AT END OF TIME STEP       1 IN STRESS PERIOD      12
  ---------------------------------------------------------------------------------------

     CUMULATIVE VOLUMES      L**3       RATES FOR THIS TIME STEP      L**3/T
     ------------------                 ------------------------

           IN:                                      IN:
           ---                                      ---
        MASS STORAGE =         165.5778          MASS STORAGE =           0.5000
    CNST H MASS FLUX =           0.0000      CNST H MASS FLUX =           0.0000
      WELL MASS FLUX =           0.0000        WELL MASS FLUX =           0.0000

            TOTAL IN =         165.5778              TOTAL IN =           0.5000

          OUT:                                     OUT:
          ----                                     ----
        MASS STORAGE =           0.2827          MASS STORAGE =       8.4642E-10
    CNST H MASS FLUX =           0.0000      CNST H MASS FLUX =           0.0000
      WELL MASS FLUX =         165.2951        WELL MASS FLUX =           0.5000

           TOTAL OUT =         165.5778             TOTAL OUT =           0.5000

            IN - OUT =       9.7771E-11              IN - OUT =      -8.4642E-10

 PERCENT DISCREPANCY =           0.00     PERCENT DISCREPANCY =          -0.00






          TIME SUMMARY AT END OF TIME STEP         1 IN STRESS PERIOD        12
                    SECONDS     MINUTES      HOURS       DAYS        YEARS
                    -----------------------------------------------------------
   TIME STEP LENGTH  99851.      1664.2      27.736      1.1557     3.16409E-03
 STRESS PERIOD TIME  99851.      1664.2      27.736      1.1557     3.16409E-03
         TOTAL TIME 2.86118E+07 4.76864E+05  7947.7      331.16     0.90665    
1
 -------------------------------------------------------------------------------------
 
 SOLVING FOR HEAD 

 Outer-Iteration  Inner-Iteration  Backtracking  Number of        Incoming       Outgoing  Maximum HeadChange      Maximum Head Change
     Number           Count           Flag       Backtracks       Residual       Residual           Value              Location
        1                             0             0          0.384530E-01     0.384530E-01
        1                5                                                                       -0.652348E-01               400           GWF-node number
        1                5                                                                       -0.612971E-01                 3           CLN-node number
        2                             0             0          0.512753E-14     0.512753E-14
        2                1                                                                       -0.895993E-07               190           GWF-node number
        2                1                                                                       -0.239592E-06                 3           CLN-node number
     2 CALLS TO SPARSE MATRIX SOLVER PACKAGE  IN FLOW TIME STEP       2 STRESS PERIOD      12

 TOTAL OF       2OUTER ITERATIONS
  MAXIMUM CHANGE FOR EACH ITERATION:
   MAX. CHANGE        NODE  MAX. CHANGE        NODE  MAX. CHANGE        NODE  MAX. CHANGE        NODE  MAX. CHANGE        NODE
 ------------------------------------------------------------------------------------------------------------------------------------
  -0.65235E-01,        400 -0.89599E-07,        190

  MAXIMUM CHANGE FOR CLN NODE AT EACH ITERATION:
   MAX. CHANGE    CLN-CELL  MAX. CHANGE    CLN-CELL  MAX. CHANGE    CLN-CELL  MAX. CHANGE    CLN-CELL  MAX. CHANGE    CLN-CELL
 ------------------------------------------------------------------------------------------------------------------------------------
  -0.61297E-01,          3 -0.23959E-06,          3

 HEAD/DRAWDOWN PRINTOUT FLAG = 1     TOTAL BUDGET PRINTOUT FLAG = 1
 CELL-BY-CELL FLOW TERM FLAG = 1
 CONCENTRATION PRINTOUT FLAG = 1

 OUTPUT FLAGS FOR ALL LAYERS ARE THE SAME:
   HEAD    DRAWDOWN  HEAD  DRAWDOWN    CONC    CONC
 PRINTOUT  PRINTOUT  SAVE    SAVE    PRINTOUT  SAVE
 ---------------------------------------------------
     0         0       1       1       0       1
 UBUDSVU SAVING "         STORAGE" ON UNIT  50 AT TIME STEP      2, STRESS PERIOD     12
 UBUDSV SAVING "     CLN STORAGE" ON UNIT 144 AT TIME STEP      2, STRESS PERIOD      12
 UBUDSVU SAVING "   CONSTANT HEAD" ON UNIT  50 AT TIME STEP      2, STRESS PERIOD     12
 UBUDSVU SAVING "   FLOW JA FACE " ON UNIT  50 AT TIME STEP      2, STRESS PERIOD     12
 UBUDSVU SAVING "             CLN" ON UNIT  50 AT TIME STEP      2, STRESS PERIOD     12
 UBUDSVU SAVING "  CLN CONST HEAD" ON UNIT 144 AT TIME STEP      2, STRESS PERIOD     12
 UBUDSVU SAVING "   FLOW CLN FACE" ON UNIT 144 AT TIME STEP      2, STRESS PERIOD     12
 UBUDSVU SAVING "             GWF" ON UNIT 144 AT TIME STEP      2, STRESS PERIOD     12
 UBUDSVU SAVING "           WELLS" ON UNIT  50 AT TIME STEP      2, STRESS PERIOD     12
 UBUDSVU SAVING "           WELLS" ON UNIT 144 AT TIME STEP      2, STRESS PERIOD     12

 HEAD WILL BE SAVED ON UNIT       30 AT END OF TIME STEP        2, STRESS PERIOD       12

 DRAWDOWN WILL BE SAVED ON UNIT   31 AT END OF TIME STEP   2, STRESS PERIOD   12

 CLN HEAD WILL BE SAVED ON UNIT   77 AT END OF TIME STEP   2, STRESS PERIOD   12
1
  VOLUMETRIC BUDGET FOR ENTIRE MODEL AT END OF TIME STEP       2 IN STRESS PERIOD      12
  ---------------------------------------------------------------------------------------

     CUMULATIVE VOLUMES      L**3       RATES FOR THIS TIME STEP      L**3/T
     ------------------                 ------------------------

           IN:                                      IN:
           ---                                      ---
             STORAGE =        1662.7125               STORAGE =           5.0000
         CLN STORAGE =           0.0000           CLN STORAGE =           0.0000
       CONSTANT HEAD =           0.0000         CONSTANT HEAD =           0.0000
      CLN CONST HEAD =           0.0000        CLN CONST HEAD =           0.0000
               WELLS =           0.0000                 WELLS =           0.0000

            TOTAL IN =        1662.7125              TOTAL IN =           5.0000

          OUT:                                     OUT:
          ----                                     ----
             STORAGE =           0.0000               STORAGE =           0.0000
         CLN STORAGE =           0.0000           CLN STORAGE =           0.0000
       CONSTANT HEAD =           0.0000         CONSTANT HEAD =           0.0000
      CLN CONST HEAD =           0.0000        CLN CONST HEAD =           0.0000
               WELLS =        1662.7124                 WELLS =           5.0000

           TOTAL OUT =        1662.7124             TOTAL OUT =           5.0000

            IN - OUT =       1.6109E-05              IN - OUT =       1.4019E-08

 PERCENT DISCREPANCY =           0.00     PERCENT DISCREPANCY =           0.00






          TIME SUMMARY AT END OF TIME STEP         2 IN STRESS PERIOD        12
                    SECONDS     MINUTES      HOURS       DAYS        YEARS
                    -----------------------------------------------------------
   TIME STEP LENGTH 1.19821E+05  1997.0      33.284      1.3868     3.79690E-03
 STRESS PERIOD TIME 2.19672E+05  3661.2      61.020      2.5425     6.96099E-03
         TOTAL TIME 2.87317E+07 4.78861E+05  7981.0      332.54     0.91045    
1
 ------------------------------------------------------------------------------------------------------------
 
 SOLVING FOR TRANSPORT 

 ------------------------------------------------------------------------------------------------------------------------
     1 CALLS TO SPARSE MATRIX SOLVER PACKAGE IN TRANSPORT TIME STEP       2 STRESS PERIOD      12 SPECIES  1

 TOTAL OF       1OUTER ITERATIONS
  MAXIMUM CHANGE FOR EACH ITERATION:
   MAX. CHANGE        NODE  MAX. CHANGE        NODE  MAX. CHANGE        NODE  MAX. CHANGE        NODE  MAX. CHANGE        NODE
 ------------------------------------------------------------------------------------------------------------------------------------
  -0.14353E-10,        191

  MAXIMUM CHANGE FOR CLN NODE AT EACH ITERATION:
   MAX. CHANGE    CLN-CELL  MAX. CHANGE    CLN-CELL  MAX. CHANGE    CLN-CELL  MAX. CHANGE    CLN-CELL  MAX. CHANGE    CLN-CELL
 ------------------------------------------------------------------------------------------------------------------------------------
   0.22156E-09,          2
     TRANSPORT SOLUTION COMPLETE FOR COMPONENT SPECIES NUMBER    1
     ------------------------------------------------------------
 UBUDSVU SAVING "    MASS STORAGE" ON UNIT 145 AT TIME STEP      2, STRESS PERIOD     12
 UBUDSVU SAVING "CLN MASS STORAGE" ON UNIT 145 AT TIME STEP      2, STRESS PERIOD     12
 UBUDSVU SAVING "CNST H MASS FLUX" ON UNIT 145 AT TIME STEP      2, STRESS PERIOD     12
 UBUDSVU SAVING "  WELL MASS FLUX" ON UNIT 145 AT TIME STEP      2, STRESS PERIOD     12

 TRANSPORT SOLUTION COMPLETE FOR ALL SPECIES, SORTING OUTPUT FOR CONCENTRATIONS AND MASS BALANCE
 ----------------------------------------------------------------------------------------------------
     TRANSPORT OUTPUT FOR COMPONENT SPECIES NUMBER    1
     ------------------------------------------------------------

 CONC WILL BE SAVED ON UNIT  132 AT END OF TIME STEP        2, STRESS PERIOD       12

 CLN CONC WILL BE SAVED ON UNIT  188 AT END OF TIME STEP   2, STRESS PERIOD   12
1
  VOLUMETRIC BUDGET FOR ENTIRE MODEL AT END OF TIME STEP       2 IN STRESS PERIOD      12
  ---------------------------------------------------------------------------------------

     CUMULATIVE VOLUMES      L**3       RATES FOR THIS TIME STEP      L**3/T
     ------------------                 ------------------------

           IN:                                      IN:
           ---                                      ---
        MASS STORAGE =         166.2712          MASS STORAGE =           0.5000
    CNST H MASS FLUX =           0.0000      CNST H MASS FLUX =           0.0000
      WELL MASS FLUX =           0.0000        WELL MASS FLUX =           0.0000

            TOTAL IN =         166.2712              TOTAL IN =           0.5000

          OUT:                                     OUT:
          ----                                     ----
        MASS STORAGE =           0.2827          MASS STORAGE =       1.1293E-11
    CNST H MASS FLUX =           0.0000      CNST H MASS FLUX =           0.0000
      WELL MASS FLUX =         165.9885        WELL MASS FLUX =           0.5000

           TOTAL OUT =         166.2712             TOTAL OUT =           0.5000

            IN - OUT =       9.7032E-11              IN - OUT =      -1.1293E-11

 PERCENT DISCREPANCY =           0.00     PERCENT DISCREPANCY =          -0.00






          TIME SUMMARY AT END OF TIME STEP         2 IN STRESS PERIOD        12
                    SECONDS     MINUTES      HOURS       DAYS        YEARS
                    -----------------------------------------------------------
   TIME STEP LENGTH 1.19821E+05  1997.0      33.284      1.3868     3.79690E-03
 STRESS PERIOD TIME 2.19672E+05  3661.2      61.020      2.5425     6.96099E-03
         TOTAL TIME 2.87317E+07 4.78861E+05  7981.0      332.54     0.91045    
1
 -------------------------------------------------------------------------------------
 
 SOLVING FOR HEAD 

 Outer-Iteration  Inner-Iteration  Backtracking  Number of        Incoming       Outgoing  Maximum HeadChange      Maximum Head Change
     Number           Count           Flag       Backtracks       Residual       Residual           Value              Location
        1                             0             0          0.384209E-01     0.384209E-01
        1                5                                                                       -0.782219E-01               400           GWF-node number
        1                5                                                                       -0.735057E-01                 1           CLN-node number
        2                             0             0          0.252962E-14     0.252962E-14
        2                1                                                                       -0.180331E-07               406           GWF-node number
        2                1                                                                        0.615002E-07                 2           CLN-node number
     2 CALLS TO SPARSE MATRIX SOLVER PACKAGE  IN FLOW TIME STEP       3 STRESS PERIOD      12

 TOTAL OF       2OUTER ITERATIONS
  MAXIMUM CHANGE FOR EACH ITERATION:
   MAX. CHANGE        NODE  MAX. CHANGE        NODE  MAX. CHANGE        NODE  MAX. CHANGE        NODE  MAX. CHANGE        NODE
 ------------------------------------------------------------------------------------------------------------------------------------
  -0.78222E-01,        400 -0.18033E-07,        406

  MAXIMUM CHANGE FOR CLN NODE AT EACH ITERATION:
   MAX. CHANGE    CLN-CELL  MAX. CHANGE    CLN-CELL  MAX. CHANGE    CLN-CELL  MAX. CHANGE    CLN-CELL  MAX. CHANGE    CLN-CELL
 ------------------------------------------------------------------------------------------------------------------------------------
  -0.73506E-01,          1  0.61500E-07,          2

 HEAD/DRAWDOWN PRINTOUT FLAG = 1     TOTAL BUDGET PRINTOUT FLAG = 1
 CELL-BY-CELL FLOW TERM FLAG = 1
 CONCENTRATION PRINTOUT FLAG = 1

 OUTPUT FLAGS FOR ALL LAYERS ARE THE SAME:
   HEAD    DRAWDOWN  HEAD  DRAWDOWN    CONC    CONC
 PRINTOUT  PRINTOUT  SAVE    SAVE    PRINTOUT  SAVE
 ---------------------------------------------------
     0         0       1       1       0       1
 UBUDSVU SAVING "         STORAGE" ON UNIT  50 AT TIME STEP      3, STRESS PERIOD     12
 UBUDSV SAVING "     CLN STORAGE" ON UNIT 144 AT TIME STEP      3, STRESS PERIOD      12
 UBUDSVU SAVING "   CONSTANT HEAD" ON UNIT  50 AT TIME STEP      3, STRESS PERIOD     12
 UBUDSVU SAVING "   FLOW JA FACE " ON UNIT  50 AT TIME STEP      3, STRESS PERIOD     12
 UBUDSVU SAVING "             CLN" ON UNIT  50 AT TIME STEP      3, STRESS PERIOD     12
 UBUDSVU SAVING "  CLN CONST HEAD" ON UNIT 144 AT TIME STEP      3, STRESS PERIOD     12
 UBUDSVU SAVING "   FLOW CLN FACE" ON UNIT 144 AT TIME STEP      3, STRESS PERIOD     12
 UBUDSVU SAVING "             GWF" ON UNIT 144 AT TIME STEP      3, STRESS PERIOD     12
 UBUDSVU SAVING "           WELLS" ON UNIT  50 AT TIME STEP      3, STRESS PERIOD     12
 UBUDSVU SAVING "           WELLS" ON UNIT 144 AT TIME STEP      3, STRESS PERIOD     12

 HEAD WILL BE SAVED ON UNIT       30 AT END OF TIME STEP        3, STRESS PERIOD       12

 DRAWDOWN WILL BE SAVED ON UNIT   31 AT END OF TIME STEP   3, STRESS PERIOD   12

 CLN HEAD WILL BE SAVED ON UNIT   77 AT END OF TIME STEP   3, STRESS PERIOD   12
1
  VOLUMETRIC BUDGET FOR ENTIRE MODEL AT END OF TIME STEP       3 IN STRESS PERIOD      12
  ---------------------------------------------------------------------------------------

     CUMULATIVE VOLUMES      L**3       RATES FOR THIS TIME STEP      L**3/T
     ------------------                 ------------------------

           IN:                                      IN:
           ---                                      ---
             STORAGE =        1671.0334               STORAGE =           5.0000
         CLN STORAGE =           0.0000           CLN STORAGE =           0.0000
       CONSTANT HEAD =           0.0000         CONSTANT HEAD =           0.0000
      CLN CONST HEAD =           0.0000        CLN CONST HEAD =           0.0000
               WELLS =           0.0000                 WELLS =           0.0000

            TOTAL IN =        1671.0334              TOTAL IN =           5.0000

          OUT:                                     OUT:
          ----                                     ----
             STORAGE =           0.0000               STORAGE =           0.0000
         CLN STORAGE =           0.0000           CLN STORAGE =           0.0000
       CONSTANT HEAD =           0.0000         CONSTANT HEAD =           0.0000
      CLN CONST HEAD =           0.0000        CLN CONST HEAD =           0.0000
               WELLS =        1671.0334                 WELLS =           5.0000

           TOTAL OUT =        1671.0334             TOTAL OUT =           5.0000

            IN - OUT =       1.6170E-05              IN - OUT =       3.7045E-08

 PERCENT DISCREPANCY =           0.00     PERCENT DISCREPANCY =           0.00






          TIME SUMMARY AT END OF TIME STEP         3 IN STRESS PERIOD        12
                    SECONDS     MINUTES      HOURS       DAYS        YEARS
                    -----------------------------------------------------------
   TIME STEP LENGTH 1.43785E+05  2396.4      39.940      1.6642     4.55628E-03
 STRESS PERIOD TIME 3.63458E+05  6057.6      100.96      4.2067     1.15173E-02
         TOTAL TIME 2.88755E+07 4.81258E+05  8021.0      334.21     0.91501    
1
 ------------------------------------------------------------------------------------------------------------
 
 SOLVING FOR TRANSPORT 

 ------------------------------------------------------------------------------------------------------------------------
     1 CALLS TO SPARSE MATRIX SOLVER PACKAGE IN TRANSPORT TIME STEP       3 STRESS PERIOD      12 SPECIES  1

 TOTAL OF       1OUTER ITERATIONS
  MAXIMUM CHANGE FOR EACH ITERATION:
   MAX. CHANGE        NODE  MAX. CHANGE        NODE  MAX. CHANGE        NODE  MAX. CHANGE        NODE  MAX. CHANGE        NODE
 ------------------------------------------------------------------------------------------------------------------------------------
   0.14941E-11,        191

  MAXIMUM CHANGE FOR CLN NODE AT EACH ITERATION:
   MAX. CHANGE    CLN-CELL  MAX. CHANGE    CLN-CELL  MAX. CHANGE    CLN-CELL  MAX. CHANGE    CLN-CELL  MAX. CHANGE    CLN-CELL
 ------------------------------------------------------------------------------------------------------------------------------------
  -0.16945E-08,          2
     TRANSPORT SOLUTION COMPLETE FOR COMPONENT SPECIES NUMBER    1
     ------------------------------------------------------------
 UBUDSVU SAVING "    MASS STORAGE" ON UNIT 145 AT TIME STEP      3, STRESS PERIOD     12
 UBUDSVU SAVING "CLN MASS STORAGE" ON UNIT 145 AT TIME STEP      3, STRESS PERIOD     12
 UBUDSVU SAVING "CNST H MASS FLUX" ON UNIT 145 AT TIME STEP      3, STRESS PERIOD     12
 UBUDSVU SAVING "  WELL MASS FLUX" ON UNIT 145 AT TIME STEP      3, STRESS PERIOD     12

 TRANSPORT SOLUTION COMPLETE FOR ALL SPECIES, SORTING OUTPUT FOR CONCENTRATIONS AND MASS BALANCE
 ----------------------------------------------------------------------------------------------------
     TRANSPORT OUTPUT FOR COMPONENT SPECIES NUMBER    1
     ------------------------------------------------------------

 CONC WILL BE SAVED ON UNIT  132 AT END OF TIME STEP        3, STRESS PERIOD       12

 CLN CONC WILL BE SAVED ON UNIT  188 AT END OF TIME STEP   3, STRESS PERIOD   12
1
  VOLUMETRIC BUDGET FOR ENTIRE MODEL AT END OF TIME STEP       3 IN STRESS PERIOD      12
  ---------------------------------------------------------------------------------------

     CUMULATIVE VOLUMES      L**3       RATES FOR THIS TIME STEP      L**3/T
     ------------------                 ------------------------

           IN:                                      IN:
           ---                                      ---
        MASS STORAGE =         167.1033          MASS STORAGE =           0.5000
    CNST H MASS FLUX =           0.0000      CNST H MASS FLUX =           0.0000
      WELL MASS FLUX =           0.0000        WELL MASS FLUX =           0.0000

            TOTAL IN =         167.1033              TOTAL IN =           0.5000

          OUT:                                     OUT:
          ----                                     ----
        MASS STORAGE =           0.2827          MASS STORAGE =           0.0000
    CNST H MASS FLUX =           0.0000      CNST H MASS FLUX =           0.0000
      WELL MASS FLUX =         166.8206        WELL MASS FLUX =           0.5000

           TOTAL OUT =         167.1033             TOTAL OUT =           0.5000

            IN - OUT =       9.7231E-11              IN - OUT =           0.0000

 PERCENT DISCREPANCY =           0.00     PERCENT DISCREPANCY =           0.00






          TIME SUMMARY AT END OF TIME STEP         3 IN STRESS PERIOD        12
                    SECONDS     MINUTES      HOURS       DAYS        YEARS
                    -----------------------------------------------------------
   TIME STEP LENGTH 1.43785E+05  2396.4      39.940      1.6642     4.55628E-03
 STRESS PERIOD TIME 3.63458E+05  6057.6      100.96      4.2067     1.15173E-02
         TOTAL TIME 2.88755E+07 4.81258E+05  8021.0      334.21     0.91501    
1
 -------------------------------------------------------------------------------------
 
 SOLVING FOR HEAD 

 Outer-Iteration  Inner-Iteration  Backtracking  Number of        Incoming       Outgoing  Maximum HeadChange      Maximum Head Change
     Number           Count           Flag       Backtracks       Residual       Residual           Value              Location
        1                             0             0          0.383825E-01     0.383825E-01
        1                5                                                                       -0.937802E-01               400           GWF-node number
        1                5                                                                       -0.881334E-01                 3           CLN-node number
        2                             0             0          0.673090E-14     0.673090E-14
        2                1                                                                       -0.946780E-07               190           GWF-node number
        2                1                                                                       -0.195033E-06                 3           CLN-node number
     2 CALLS TO SPARSE MATRIX SOLVER PACKAGE  IN FLOW TIME STEP       4 STRESS PERIOD      12

 TOTAL OF       2OUTER ITERATIONS
  MAXIMUM CHANGE FOR EACH ITERATION:
   MAX. CHANGE        NODE  MAX. CHANGE        NODE  MAX. CHANGE        NODE  MAX. CHANGE        NODE  MAX. CHANGE        NODE
 ------------------------------------------------------------------------------------------------------------------------------------
  -0.93780E-01,        400 -0.94678E-07,        190

  MAXIMUM CHANGE FOR CLN NODE AT EACH ITERATION:
   MAX. CHANGE    CLN-CELL  MAX. CHANGE    CLN-CELL  MAX. CHANGE    CLN-CELL  MAX. CHANGE    CLN-CELL  MAX. CHANGE    CLN-CELL
 ------------------------------------------------------------------------------------------------------------------------------------
  -0.88133E-01,          3 -0.19503E-06,          3

 HEAD/DRAWDOWN PRINTOUT FLAG = 1     TOTAL BUDGET PRINTOUT FLAG = 1
 CELL-BY-CELL FLOW TERM FLAG = 1
 CONCENTRATION PRINTOUT FLAG = 1

 OUTPUT FLAGS FOR ALL LAYERS ARE THE SAME:
   HEAD    DRAWDOWN  HEAD  DRAWDOWN    CONC    CONC
 PRINTOUT  PRINTOUT  SAVE    SAVE    PRINTOUT  SAVE
 ---------------------------------------------------
     0         0       1       1       0       1
 UBUDSVU SAVING "         STORAGE" ON UNIT  50 AT TIME STEP      4, STRESS PERIOD     12
 UBUDSV SAVING "     CLN STORAGE" ON UNIT 144 AT TIME STEP      4, STRESS PERIOD      12
 UBUDSVU SAVING "   CONSTANT HEAD" ON UNIT  50 AT TIME STEP      4, STRESS PERIOD     12
 UBUDSVU SAVING "   FLOW JA FACE " ON UNIT  50 AT TIME STEP      4, STRESS PERIOD     12
 UBUDSVU SAVING "             CLN" ON UNIT  50 AT TIME STEP      4, STRESS PERIOD     12
 UBUDSVU SAVING "  CLN CONST HEAD" ON UNIT 144 AT TIME STEP      4, STRESS PERIOD     12
 UBUDSVU SAVING "   FLOW CLN FACE" ON UNIT 144 AT TIME STEP      4, STRESS PERIOD     12
 UBUDSVU SAVING "             GWF" ON UNIT 144 AT TIME STEP      4, STRESS PERIOD     12
 UBUDSVU SAVING "           WELLS" ON UNIT  50 AT TIME STEP      4, STRESS PERIOD     12
 UBUDSVU SAVING "           WELLS" ON UNIT 144 AT TIME STEP      4, STRESS PERIOD     12

 HEAD WILL BE SAVED ON UNIT       30 AT END OF TIME STEP        4, STRESS PERIOD       12

 DRAWDOWN WILL BE SAVED ON UNIT   31 AT END OF TIME STEP   4, STRESS PERIOD   12

 CLN HEAD WILL BE SAVED ON UNIT   77 AT END OF TIME STEP   4, STRESS PERIOD   12
1
  VOLUMETRIC BUDGET FOR ENTIRE MODEL AT END OF TIME STEP       4 IN STRESS PERIOD      12
  ---------------------------------------------------------------------------------------

     CUMULATIVE VOLUMES      L**3       RATES FOR THIS TIME STEP      L**3/T
     ------------------                 ------------------------

           IN:                                      IN:
           ---                                      ---
             STORAGE =        1681.0185               STORAGE =           5.0000
         CLN STORAGE =           0.0000           CLN STORAGE =           0.0000
       CONSTANT HEAD =           0.0000         CONSTANT HEAD =           0.0000
      CLN CONST HEAD =           0.0000        CLN CONST HEAD =           0.0000
               WELLS =           0.0000                 WELLS =           0.0000

            TOTAL IN =        1681.0185              TOTAL IN =           5.0000

          OUT:                                     OUT:
          ----                                     ----
             STORAGE =           0.0000               STORAGE =           0.0000
         CLN STORAGE =           0.0000           CLN STORAGE =           0.0000
       CONSTANT HEAD =           0.0000         CONSTANT HEAD =           0.0000
      CLN CONST HEAD =           0.0000        CLN CONST HEAD =           0.0000
               WELLS =        1681.0185                 WELLS =           5.0000

           TOTAL OUT =        1681.0185             TOTAL OUT =           5.0000

            IN - OUT =       1.6250E-05              IN - OUT =       3.9902E-08

 PERCENT DISCREPANCY =           0.00     PERCENT DISCREPANCY =           0.00






          TIME SUMMARY AT END OF TIME STEP         4 IN STRESS PERIOD        12
                    SECONDS     MINUTES      HOURS       DAYS        YEARS
                    -----------------------------------------------------------
   TIME STEP LENGTH 1.72542E+05  2875.7      47.928      1.9970     5.46754E-03
 STRESS PERIOD TIME 5.36000E+05  8933.3      148.89      6.2037     1.69848E-02
         TOTAL TIME 2.90480E+07 4.84133E+05  8068.9      336.20     0.92048    
1
 ------------------------------------------------------------------------------------------------------------
 
 SOLVING FOR TRANSPORT 

 ------------------------------------------------------------------------------------------------------------------------
     1 CALLS TO SPARSE MATRIX SOLVER PACKAGE IN TRANSPORT TIME STEP       4 STRESS PERIOD      12 SPECIES  1

 TOTAL OF       1OUTER ITERATIONS
  MAXIMUM CHANGE FOR EACH ITERATION:
   MAX. CHANGE        NODE  MAX. CHANGE        NODE  MAX. CHANGE        NODE  MAX. CHANGE        NODE  MAX. CHANGE        NODE
 ------------------------------------------------------------------------------------------------------------------------------------
  -0.18037E-10,        191

  MAXIMUM CHANGE FOR CLN NODE AT EACH ITERATION:
   MAX. CHANGE    CLN-CELL  MAX. CHANGE    CLN-CELL  MAX. CHANGE    CLN-CELL  MAX. CHANGE    CLN-CELL  MAX. CHANGE    CLN-CELL
 ------------------------------------------------------------------------------------------------------------------------------------
   0.13873E-08,          2
     TRANSPORT SOLUTION COMPLETE FOR COMPONENT SPECIES NUMBER    1
     ------------------------------------------------------------
 UBUDSVU SAVING "    MASS STORAGE" ON UNIT 145 AT TIME STEP      4, STRESS PERIOD     12
 UBUDSVU SAVING "CLN MASS STORAGE" ON UNIT 145 AT TIME STEP      4, STRESS PERIOD     12
 UBUDSVU SAVING "CNST H MASS FLUX" ON UNIT 145 AT TIME STEP      4, STRESS PERIOD     12
 UBUDSVU SAVING "  WELL MASS FLUX" ON UNIT 145 AT TIME STEP      4, STRESS PERIOD     12

 TRANSPORT SOLUTION COMPLETE FOR ALL SPECIES, SORTING OUTPUT FOR CONCENTRATIONS AND MASS BALANCE
 ----------------------------------------------------------------------------------------------------
     TRANSPORT OUTPUT FOR COMPONENT SPECIES NUMBER    1
     ------------------------------------------------------------

 CONC WILL BE SAVED ON UNIT  132 AT END OF TIME STEP        4, STRESS PERIOD       12

 CLN CONC WILL BE SAVED ON UNIT  188 AT END OF TIME STEP   4, STRESS PERIOD   12
1
  VOLUMETRIC BUDGET FOR ENTIRE MODEL AT END OF TIME STEP       4 IN STRESS PERIOD      12
  ---------------------------------------------------------------------------------------

     CUMULATIVE VOLUMES      L**3       RATES FOR THIS TIME STEP      L**3/T
     ------------------                 ------------------------

           IN:                                      IN:
           ---                                      ---
        MASS STORAGE =         168.1018          MASS STORAGE =           0.5000
    CNST H MASS FLUX =           0.0000      CNST H MASS FLUX =           0.0000
      WELL MASS FLUX =           0.0000        WELL MASS FLUX =           0.0000

            TOTAL IN =         168.1018              TOTAL IN =           0.5000

          OUT:                                     OUT:
          ----                                     ----
        MASS STORAGE =           0.2827          MASS STORAGE =       6.3712E-10
    CNST H MASS FLUX =           0.0000      CNST H MASS FLUX =           0.0000
      WELL MASS FLUX =         167.8191        WELL MASS FLUX =           0.5000

           TOTAL OUT =         168.1018             TOTAL OUT =           0.5000

            IN - OUT =       9.4360E-11              IN - OUT =      -6.3712E-10

 PERCENT DISCREPANCY =           0.00     PERCENT DISCREPANCY =          -0.00






          TIME SUMMARY AT END OF TIME STEP         4 IN STRESS PERIOD        12
                    SECONDS     MINUTES      HOURS       DAYS        YEARS
                    -----------------------------------------------------------
   TIME STEP LENGTH 1.72542E+05  2875.7      47.928      1.9970     5.46754E-03
 STRESS PERIOD TIME 5.36000E+05  8933.3      148.89      6.2037     1.69848E-02
         TOTAL TIME 2.90480E+07 4.84133E+05  8068.9      336.20     0.92048    
1
 -------------------------------------------------------------------------------------
 
 SOLVING FOR HEAD 

 Outer-Iteration  Inner-Iteration  Backtracking  Number of        Incoming       Outgoing  Maximum HeadChange      Maximum Head Change
     Number           Count           Flag       Backtracks       Residual       Residual           Value              Location
        1                             0             0          0.383367E-01     0.383367E-01
        1                6                                                                       -0.112413                   400           GWF-node number
        1                6                                                                       -0.105655                     3           CLN-node number
        2                             0             0          0.819321E-14     0.819321E-14
        2                1                                                                        0.677114E-07               190           GWF-node number
        2                1                                                                        0.175438E-06                 3           CLN-node number
     2 CALLS TO SPARSE MATRIX SOLVER PACKAGE  IN FLOW TIME STEP       5 STRESS PERIOD      12

 TOTAL OF       2OUTER ITERATIONS
  MAXIMUM CHANGE FOR EACH ITERATION:
   MAX. CHANGE        NODE  MAX. CHANGE        NODE  MAX. CHANGE        NODE  MAX. CHANGE        NODE  MAX. CHANGE        NODE
 ------------------------------------------------------------------------------------------------------------------------------------
  -0.11241    ,        400  0.67711E-07,        190

  MAXIMUM CHANGE FOR CLN NODE AT EACH ITERATION:
   MAX. CHANGE    CLN-CELL  MAX. CHANGE    CLN-CELL  MAX. CHANGE    CLN-CELL  MAX. CHANGE    CLN-CELL  MAX. CHANGE    CLN-CELL
 ------------------------------------------------------------------------------------------------------------------------------------
  -0.10565    ,          3  0.17544E-06,          3

 HEAD/DRAWDOWN PRINTOUT FLAG = 1     TOTAL BUDGET PRINTOUT FLAG = 1
 CELL-BY-CELL FLOW TERM FLAG = 1
 CONCENTRATION PRINTOUT FLAG = 1

 OUTPUT FLAGS FOR ALL LAYERS ARE THE SAME:
   HEAD    DRAWDOWN  HEAD  DRAWDOWN    CONC    CONC
 PRINTOUT  PRINTOUT  SAVE    SAVE    PRINTOUT  SAVE
 ---------------------------------------------------
     0         0       1       1       0       1
 UBUDSVU SAVING "         STORAGE" ON UNIT  50 AT TIME STEP      5, STRESS PERIOD     12
 UBUDSV SAVING "     CLN STORAGE" ON UNIT 144 AT TIME STEP      5, STRESS PERIOD      12
 UBUDSVU SAVING "   CONSTANT HEAD" ON UNIT  50 AT TIME STEP      5, STRESS PERIOD     12
 UBUDSVU SAVING "   FLOW JA FACE " ON UNIT  50 AT TIME STEP      5, STRESS PERIOD     12
 UBUDSVU SAVING "             CLN" ON UNIT  50 AT TIME STEP      5, STRESS PERIOD     12
 UBUDSVU SAVING "  CLN CONST HEAD" ON UNIT 144 AT TIME STEP      5, STRESS PERIOD     12
 UBUDSVU SAVING "   FLOW CLN FACE" ON UNIT 144 AT TIME STEP      5, STRESS PERIOD     12
 UBUDSVU SAVING "             GWF" ON UNIT 144 AT TIME STEP      5, STRESS PERIOD     12
 UBUDSVU SAVING "           WELLS" ON UNIT  50 AT TIME STEP      5, STRESS PERIOD     12
 UBUDSVU SAVING "           WELLS" ON UNIT 144 AT TIME STEP      5, STRESS PERIOD     12

 HEAD WILL BE SAVED ON UNIT       30 AT END OF TIME STEP        5, STRESS PERIOD       12

 DRAWDOWN WILL BE SAVED ON UNIT   31 AT END OF TIME STEP   5, STRESS PERIOD   12

 CLN HEAD WILL BE SAVED ON UNIT   77 AT END OF TIME STEP   5, STRESS PERIOD   12
1
  VOLUMETRIC BUDGET FOR ENTIRE MODEL AT END OF TIME STEP       5 IN STRESS PERIOD      12
  ---------------------------------------------------------------------------------------

     CUMULATIVE VOLUMES      L**3       RATES FOR THIS TIME STEP      L**3/T
     ------------------                 ------------------------

           IN:                                      IN:
           ---                                      ---
             STORAGE =        1693.0006               STORAGE =           5.0000
         CLN STORAGE =           0.0000           CLN STORAGE =           0.0000
       CONSTANT HEAD =           0.0000         CONSTANT HEAD =           0.0000
      CLN CONST HEAD =           0.0000        CLN CONST HEAD =           0.0000
               WELLS =           0.0000                 WELLS =           0.0000

            TOTAL IN =        1693.0006              TOTAL IN =           5.0000

          OUT:                                     OUT:
          ----                                     ----
             STORAGE =           0.0000               STORAGE =           0.0000
         CLN STORAGE =           0.0000           CLN STORAGE =           0.0000
       CONSTANT HEAD =           0.0000         CONSTANT HEAD =           0.0000
      CLN CONST HEAD =           0.0000        CLN CONST HEAD =           0.0000
               WELLS =        1693.0006                 WELLS =           5.0000

           TOTAL OUT =        1693.0006             TOTAL OUT =           5.0000

            IN - OUT =       1.6355E-05              IN - OUT =       4.3793E-08

 PERCENT DISCREPANCY =           0.00     PERCENT DISCREPANCY =           0.00






          TIME SUMMARY AT END OF TIME STEP         5 IN STRESS PERIOD        12
                    SECONDS     MINUTES      HOURS       DAYS        YEARS
                    -----------------------------------------------------------
   TIME STEP LENGTH 2.07051E+05  3450.8      57.514      2.3964     6.56105E-03
 STRESS PERIOD TIME 7.43051E+05  12384.      206.40      8.6001     2.35459E-02
         TOTAL TIME 2.92550E+07 4.87584E+05  8126.4      338.60     0.92704    
1
 ------------------------------------------------------------------------------------------------------------
 
 SOLVING FOR TRANSPORT 

 ------------------------------------------------------------------------------------------------------------------------
     1 CALLS TO SPARSE MATRIX SOLVER PACKAGE IN TRANSPORT TIME STEP       5 STRESS PERIOD      12 SPECIES  1

 TOTAL OF       1OUTER ITERATIONS
  MAXIMUM CHANGE FOR EACH ITERATION:
   MAX. CHANGE        NODE  MAX. CHANGE        NODE  MAX. CHANGE        NODE  MAX. CHANGE        NODE  MAX. CHANGE        NODE
 ------------------------------------------------------------------------------------------------------------------------------------
   0.13440E-10,        191

  MAXIMUM CHANGE FOR CLN NODE AT EACH ITERATION:
   MAX. CHANGE    CLN-CELL  MAX. CHANGE    CLN-CELL  MAX. CHANGE    CLN-CELL  MAX. CHANGE    CLN-CELL  MAX. CHANGE    CLN-CELL
 ------------------------------------------------------------------------------------------------------------------------------------
  -0.10200E-08,          3
     TRANSPORT SOLUTION COMPLETE FOR COMPONENT SPECIES NUMBER    1
     ------------------------------------------------------------
 UBUDSVU SAVING "    MASS STORAGE" ON UNIT 145 AT TIME STEP      5, STRESS PERIOD     12
 UBUDSVU SAVING "CLN MASS STORAGE" ON UNIT 145 AT TIME STEP      5, STRESS PERIOD     12
 UBUDSVU SAVING "CNST H MASS FLUX" ON UNIT 145 AT TIME STEP      5, STRESS PERIOD     12
 UBUDSVU SAVING "  WELL MASS FLUX" ON UNIT 145 AT TIME STEP      5, STRESS PERIOD     12

 TRANSPORT SOLUTION COMPLETE FOR ALL SPECIES, SORTING OUTPUT FOR CONCENTRATIONS AND MASS BALANCE
 ----------------------------------------------------------------------------------------------------
     TRANSPORT OUTPUT FOR COMPONENT SPECIES NUMBER    1
     ------------------------------------------------------------

 CONC WILL BE SAVED ON UNIT  132 AT END OF TIME STEP        5, STRESS PERIOD       12

 CLN CONC WILL BE SAVED ON UNIT  188 AT END OF TIME STEP   5, STRESS PERIOD   12
1
  VOLUMETRIC BUDGET FOR ENTIRE MODEL AT END OF TIME STEP       5 IN STRESS PERIOD      12
  ---------------------------------------------------------------------------------------

     CUMULATIVE VOLUMES      L**3       RATES FOR THIS TIME STEP      L**3/T
     ------------------                 ------------------------

           IN:                                      IN:
           ---                                      ---
        MASS STORAGE =         169.3001          MASS STORAGE =           0.5000
    CNST H MASS FLUX =           0.0000      CNST H MASS FLUX =           0.0000
      WELL MASS FLUX =           0.0000        WELL MASS FLUX =           0.0000

            TOTAL IN =         169.3001              TOTAL IN =           0.5000

          OUT:                                     OUT:
          ----                                     ----
        MASS STORAGE =           0.2827          MASS STORAGE =       1.2177E-10
    CNST H MASS FLUX =           0.0000      CNST H MASS FLUX =           0.0000
      WELL MASS FLUX =         169.0173        WELL MASS FLUX =           0.5000

           TOTAL OUT =         169.3001             TOTAL OUT =           0.5000

            IN - OUT =       9.7828E-11              IN - OUT =      -1.2177E-10

 PERCENT DISCREPANCY =           0.00     PERCENT DISCREPANCY =          -0.00






          TIME SUMMARY AT END OF TIME STEP         5 IN STRESS PERIOD        12
                    SECONDS     MINUTES      HOURS       DAYS        YEARS
                    -----------------------------------------------------------
   TIME STEP LENGTH 2.07051E+05  3450.8      57.514      2.3964     6.56105E-03
 STRESS PERIOD TIME 7.43051E+05  12384.      206.40      8.6001     2.35459E-02
         TOTAL TIME 2.92550E+07 4.87584E+05  8126.4      338.60     0.92704    
1
 -------------------------------------------------------------------------------------
 
 SOLVING FOR HEAD 

 Outer-Iteration  Inner-Iteration  Backtracking  Number of        Incoming       Outgoing  Maximum HeadChange      Maximum Head Change
     Number           Count           Flag       Backtracks       Residual       Residual           Value              Location
        1                             0             0          0.382821E-01     0.382821E-01
        1                6                                                                       -0.134718                   400           GWF-node number
        1                6                                                                       -0.126635                     1           CLN-node number
        2                             0             0          0.114104E-14     0.114104E-14
        2                1                                                                        0.294640E-07               190           GWF-node number
        2                1                                                                        0.792225E-07                 3           CLN-node number
     2 CALLS TO SPARSE MATRIX SOLVER PACKAGE  IN FLOW TIME STEP       6 STRESS PERIOD      12

 TOTAL OF       2OUTER ITERATIONS
  MAXIMUM CHANGE FOR EACH ITERATION:
   MAX. CHANGE        NODE  MAX. CHANGE        NODE  MAX. CHANGE        NODE  MAX. CHANGE        NODE  MAX. CHANGE        NODE
 ------------------------------------------------------------------------------------------------------------------------------------
  -0.13472    ,        400  0.29464E-07,        190

  MAXIMUM CHANGE FOR CLN NODE AT EACH ITERATION:
   MAX. CHANGE    CLN-CELL  MAX. CHANGE    CLN-CELL  MAX. CHANGE    CLN-CELL  MAX. CHANGE    CLN-CELL  MAX. CHANGE    CLN-CELL
 ------------------------------------------------------------------------------------------------------------------------------------
  -0.12663    ,          1  0.79223E-07,          3

 HEAD/DRAWDOWN PRINTOUT FLAG = 1     TOTAL BUDGET PRINTOUT FLAG = 1
 CELL-BY-CELL FLOW TERM FLAG = 1
 CONCENTRATION PRINTOUT FLAG = 1

 OUTPUT FLAGS FOR ALL LAYERS ARE THE SAME:
   HEAD    DRAWDOWN  HEAD  DRAWDOWN    CONC    CONC
 PRINTOUT  PRINTOUT  SAVE    SAVE    PRINTOUT  SAVE
 ---------------------------------------------------
     0         0       1       1       0       1
 UBUDSVU SAVING "         STORAGE" ON UNIT  50 AT TIME STEP      6, STRESS PERIOD     12
 UBUDSV SAVING "     CLN STORAGE" ON UNIT 144 AT TIME STEP      6, STRESS PERIOD      12
 UBUDSVU SAVING "   CONSTANT HEAD" ON UNIT  50 AT TIME STEP      6, STRESS PERIOD     12
 UBUDSVU SAVING "   FLOW JA FACE " ON UNIT  50 AT TIME STEP      6, STRESS PERIOD     12
 UBUDSVU SAVING "             CLN" ON UNIT  50 AT TIME STEP      6, STRESS PERIOD     12
 UBUDSVU SAVING "  CLN CONST HEAD" ON UNIT 144 AT TIME STEP      6, STRESS PERIOD     12
 UBUDSVU SAVING "   FLOW CLN FACE" ON UNIT 144 AT TIME STEP      6, STRESS PERIOD     12
 UBUDSVU SAVING "             GWF" ON UNIT 144 AT TIME STEP      6, STRESS PERIOD     12
 UBUDSVU SAVING "           WELLS" ON UNIT  50 AT TIME STEP      6, STRESS PERIOD     12
 UBUDSVU SAVING "           WELLS" ON UNIT 144 AT TIME STEP      6, STRESS PERIOD     12

 HEAD WILL BE SAVED ON UNIT       30 AT END OF TIME STEP        6, STRESS PERIOD       12

 DRAWDOWN WILL BE SAVED ON UNIT   31 AT END OF TIME STEP   6, STRESS PERIOD   12

 CLN HEAD WILL BE SAVED ON UNIT   77 AT END OF TIME STEP   6, STRESS PERIOD   12
1
  VOLUMETRIC BUDGET FOR ENTIRE MODEL AT END OF TIME STEP       6 IN STRESS PERIOD      12
  ---------------------------------------------------------------------------------------

     CUMULATIVE VOLUMES      L**3       RATES FOR THIS TIME STEP      L**3/T
     ------------------                 ------------------------

           IN:                                      IN:
           ---                                      ---
             STORAGE =        1707.3791               STORAGE =           5.0000
         CLN STORAGE =           0.0000           CLN STORAGE =           0.0000
       CONSTANT HEAD =           0.0000         CONSTANT HEAD =           0.0000
      CLN CONST HEAD =           0.0000        CLN CONST HEAD =           0.0000
               WELLS =           0.0000                 WELLS =           0.0000

            TOTAL IN =        1707.3791              TOTAL IN =           5.0000

          OUT:                                     OUT:
          ----                                     ----
             STORAGE =           0.0000               STORAGE =           0.0000
         CLN STORAGE =           0.0000           CLN STORAGE =           0.0000
       CONSTANT HEAD =           0.0000         CONSTANT HEAD =           0.0000
      CLN CONST HEAD =           0.0000        CLN CONST HEAD =           0.0000
               WELLS =        1707.3791                 WELLS =           5.0000

           TOTAL OUT =        1707.3791             TOTAL OUT =           5.0000

            IN - OUT =       1.6430E-05              IN - OUT =       2.6063E-08

 PERCENT DISCREPANCY =           0.00     PERCENT DISCREPANCY =           0.00






          TIME SUMMARY AT END OF TIME STEP         6 IN STRESS PERIOD        12
                    SECONDS     MINUTES      HOURS       DAYS        YEARS
                    -----------------------------------------------------------
   TIME STEP LENGTH 2.48461E+05  4141.0      69.017      2.8757     7.87326E-03
 STRESS PERIOD TIME 9.91512E+05  16525.      275.42      11.476     3.14191E-02
         TOTAL TIME 2.95035E+07 4.91725E+05  8195.4      341.48     0.93491    
1
 ------------------------------------------------------------------------------------------------------------
 
 SOLVING FOR TRANSPORT 

 ------------------------------------------------------------------------------------------------------------------------
     1 CALLS TO SPARSE MATRIX SOLVER PACKAGE IN TRANSPORT TIME STEP       6 STRESS PERIOD      12 SPECIES  1

 TOTAL OF       1OUTER ITERATIONS
  MAXIMUM CHANGE FOR EACH ITERATION:
   MAX. CHANGE        NODE  MAX. CHANGE        NODE  MAX. CHANGE        NODE  MAX. CHANGE        NODE  MAX. CHANGE        NODE
 ------------------------------------------------------------------------------------------------------------------------------------
   0.51286E-11,        191

  MAXIMUM CHANGE FOR CLN NODE AT EACH ITERATION:
   MAX. CHANGE    CLN-CELL  MAX. CHANGE    CLN-CELL  MAX. CHANGE    CLN-CELL  MAX. CHANGE    CLN-CELL  MAX. CHANGE    CLN-CELL
 ------------------------------------------------------------------------------------------------------------------------------------
   0.12365E-09,          2
     TRANSPORT SOLUTION COMPLETE FOR COMPONENT SPECIES NUMBER    1
     ------------------------------------------------------------
 UBUDSVU SAVING "    MASS STORAGE" ON UNIT 145 AT TIME STEP      6, STRESS PERIOD     12
 UBUDSVU SAVING "CLN MASS STORAGE" ON UNIT 145 AT TIME STEP      6, STRESS PERIOD     12
 UBUDSVU SAVING "CNST H MASS FLUX" ON UNIT 145 AT TIME STEP      6, STRESS PERIOD     12
 UBUDSVU SAVING "  WELL MASS FLUX" ON UNIT 145 AT TIME STEP      6, STRESS PERIOD     12

 TRANSPORT SOLUTION COMPLETE FOR ALL SPECIES, SORTING OUTPUT FOR CONCENTRATIONS AND MASS BALANCE
 ----------------------------------------------------------------------------------------------------
     TRANSPORT OUTPUT FOR COMPONENT SPECIES NUMBER    1
     ------------------------------------------------------------

 CONC WILL BE SAVED ON UNIT  132 AT END OF TIME STEP        6, STRESS PERIOD       12

 CLN CONC WILL BE SAVED ON UNIT  188 AT END OF TIME STEP   6, STRESS PERIOD   12
1
  VOLUMETRIC BUDGET FOR ENTIRE MODEL AT END OF TIME STEP       6 IN STRESS PERIOD      12
  ---------------------------------------------------------------------------------------

     CUMULATIVE VOLUMES      L**3       RATES FOR THIS TIME STEP      L**3/T
     ------------------                 ------------------------

           IN:                                      IN:
           ---                                      ---
        MASS STORAGE =         170.7379          MASS STORAGE =           0.5000
    CNST H MASS FLUX =           0.0000      CNST H MASS FLUX =           0.0000
      WELL MASS FLUX =           0.0000        WELL MASS FLUX =           0.0000

            TOTAL IN =         170.7379              TOTAL IN =           0.5000

          OUT:                                     OUT:
          ----                                     ----
        MASS STORAGE =           0.2827          MASS STORAGE =       8.5594E-12
    CNST H MASS FLUX =           0.0000      CNST H MASS FLUX =           0.0000
      WELL MASS FLUX =         170.4552        WELL MASS FLUX =           0.5000

           TOTAL OUT =         170.7379             TOTAL OUT =           0.5000

            IN - OUT =       9.9504E-11              IN - OUT =      -8.5595E-12

 PERCENT DISCREPANCY =           0.00     PERCENT DISCREPANCY =          -0.00






          TIME SUMMARY AT END OF TIME STEP         6 IN STRESS PERIOD        12
                    SECONDS     MINUTES      HOURS       DAYS        YEARS
                    -----------------------------------------------------------
   TIME STEP LENGTH 2.48461E+05  4141.0      69.017      2.8757     7.87326E-03
 STRESS PERIOD TIME 9.91512E+05  16525.      275.42      11.476     3.14191E-02
         TOTAL TIME 2.95035E+07 4.91725E+05  8195.4      341.48     0.93491    
1
 -------------------------------------------------------------------------------------
 
 SOLVING FOR HEAD 

 Outer-Iteration  Inner-Iteration  Backtracking  Number of        Incoming       Outgoing  Maximum HeadChange      Maximum Head Change
     Number           Count           Flag       Backtracks       Residual       Residual           Value              Location
        1                             0             0          0.382170E-01     0.382170E-01
        1                6                                                                       -0.161407                   400           GWF-node number
        1                6                                                                       -0.151746                     1           CLN-node number
        2                             0             0          0.732844E-14     0.732844E-14
        2                1                                                                        0.518890E-07               401           GWF-node number
        2                1                                                                        0.109745E-06                 3           CLN-node number
     2 CALLS TO SPARSE MATRIX SOLVER PACKAGE  IN FLOW TIME STEP       7 STRESS PERIOD      12

 TOTAL OF       2OUTER ITERATIONS
  MAXIMUM CHANGE FOR EACH ITERATION:
   MAX. CHANGE        NODE  MAX. CHANGE        NODE  MAX. CHANGE        NODE  MAX. CHANGE        NODE  MAX. CHANGE        NODE
 ------------------------------------------------------------------------------------------------------------------------------------
  -0.16141    ,        400  0.51889E-07,        401

  MAXIMUM CHANGE FOR CLN NODE AT EACH ITERATION:
   MAX. CHANGE    CLN-CELL  MAX. CHANGE    CLN-CELL  MAX. CHANGE    CLN-CELL  MAX. CHANGE    CLN-CELL  MAX. CHANGE    CLN-CELL
 ------------------------------------------------------------------------------------------------------------------------------------
  -0.15175    ,          1  0.10975E-06,          3

 HEAD/DRAWDOWN PRINTOUT FLAG = 1     TOTAL BUDGET PRINTOUT FLAG = 1
 CELL-BY-CELL FLOW TERM FLAG = 1
 CONCENTRATION PRINTOUT FLAG = 1

 OUTPUT FLAGS FOR ALL LAYERS ARE THE SAME:
   HEAD    DRAWDOWN  HEAD  DRAWDOWN    CONC    CONC
 PRINTOUT  PRINTOUT  SAVE    SAVE    PRINTOUT  SAVE
 ---------------------------------------------------
     0         0       1       1       0       1
 UBUDSVU SAVING "         STORAGE" ON UNIT  50 AT TIME STEP      7, STRESS PERIOD     12
 UBUDSV SAVING "     CLN STORAGE" ON UNIT 144 AT TIME STEP      7, STRESS PERIOD      12
 UBUDSVU SAVING "   CONSTANT HEAD" ON UNIT  50 AT TIME STEP      7, STRESS PERIOD     12
 UBUDSVU SAVING "   FLOW JA FACE " ON UNIT  50 AT TIME STEP      7, STRESS PERIOD     12
 UBUDSVU SAVING "             CLN" ON UNIT  50 AT TIME STEP      7, STRESS PERIOD     12
 UBUDSVU SAVING "  CLN CONST HEAD" ON UNIT 144 AT TIME STEP      7, STRESS PERIOD     12
 UBUDSVU SAVING "   FLOW CLN FACE" ON UNIT 144 AT TIME STEP      7, STRESS PERIOD     12
 UBUDSVU SAVING "             GWF" ON UNIT 144 AT TIME STEP      7, STRESS PERIOD     12
 UBUDSVU SAVING "           WELLS" ON UNIT  50 AT TIME STEP      7, STRESS PERIOD     12
 UBUDSVU SAVING "           WELLS" ON UNIT 144 AT TIME STEP      7, STRESS PERIOD     12

 HEAD WILL BE SAVED ON UNIT       30 AT END OF TIME STEP        7, STRESS PERIOD       12

 DRAWDOWN WILL BE SAVED ON UNIT   31 AT END OF TIME STEP   7, STRESS PERIOD   12

 CLN HEAD WILL BE SAVED ON UNIT   77 AT END OF TIME STEP   7, STRESS PERIOD   12
1
  VOLUMETRIC BUDGET FOR ENTIRE MODEL AT END OF TIME STEP       7 IN STRESS PERIOD      12
  ---------------------------------------------------------------------------------------

     CUMULATIVE VOLUMES      L**3       RATES FOR THIS TIME STEP      L**3/T
     ------------------                 ------------------------

           IN:                                      IN:
           ---                                      ---
             STORAGE =        1724.6334               STORAGE =           5.0000
         CLN STORAGE =           0.0000           CLN STORAGE =           0.0000
       CONSTANT HEAD =           0.0000         CONSTANT HEAD =           0.0000
      CLN CONST HEAD =           0.0000        CLN CONST HEAD =           0.0000
               WELLS =           0.0000                 WELLS =           0.0000

            TOTAL IN =        1724.6334              TOTAL IN =           5.0000

          OUT:                                     OUT:
          ----                                     ----
             STORAGE =           0.0000               STORAGE =           0.0000
         CLN STORAGE =           0.0000           CLN STORAGE =           0.0000
       CONSTANT HEAD =           0.0000         CONSTANT HEAD =           0.0000
      CLN CONST HEAD =           0.0000        CLN CONST HEAD =           0.0000
               WELLS =        1724.6334                 WELLS =           5.0000

           TOTAL OUT =        1724.6334             TOTAL OUT =           5.0000

            IN - OUT =       1.6607E-05              IN - OUT =       5.1366E-08

 PERCENT DISCREPANCY =           0.00     PERCENT DISCREPANCY =           0.00






          TIME SUMMARY AT END OF TIME STEP         7 IN STRESS PERIOD        12
                    SECONDS     MINUTES      HOURS       DAYS        YEARS
                    -----------------------------------------------------------
   TIME STEP LENGTH 2.98153E+05  4969.2      82.820      3.4509     9.44791E-03
 STRESS PERIOD TIME 1.28967E+06  21494.      358.24      14.927     4.08670E-02
         TOTAL TIME 2.98017E+07 4.96694E+05  8278.2      344.93     0.94436    
1
 ------------------------------------------------------------------------------------------------------------
 
 SOLVING FOR TRANSPORT 

 ------------------------------------------------------------------------------------------------------------------------
     1 CALLS TO SPARSE MATRIX SOLVER PACKAGE IN TRANSPORT TIME STEP       7 STRESS PERIOD      12 SPECIES  1

 TOTAL OF       1OUTER ITERATIONS
  MAXIMUM CHANGE FOR EACH ITERATION:
   MAX. CHANGE        NODE  MAX. CHANGE        NODE  MAX. CHANGE        NODE  MAX. CHANGE        NODE  MAX. CHANGE        NODE
 ------------------------------------------------------------------------------------------------------------------------------------
   0.10431E-10,        191

  MAXIMUM CHANGE FOR CLN NODE AT EACH ITERATION:
   MAX. CHANGE    CLN-CELL  MAX. CHANGE    CLN-CELL  MAX. CHANGE    CLN-CELL  MAX. CHANGE    CLN-CELL  MAX. CHANGE    CLN-CELL
 ------------------------------------------------------------------------------------------------------------------------------------
  -0.63088E-09,          1
     TRANSPORT SOLUTION COMPLETE FOR COMPONENT SPECIES NUMBER    1
     ------------------------------------------------------------
 UBUDSVU SAVING "    MASS STORAGE" ON UNIT 145 AT TIME STEP      7, STRESS PERIOD     12
 UBUDSVU SAVING "CLN MASS STORAGE" ON UNIT 145 AT TIME STEP      7, STRESS PERIOD     12
 UBUDSVU SAVING "CNST H MASS FLUX" ON UNIT 145 AT TIME STEP      7, STRESS PERIOD     12
 UBUDSVU SAVING "  WELL MASS FLUX" ON UNIT 145 AT TIME STEP      7, STRESS PERIOD     12

 TRANSPORT SOLUTION COMPLETE FOR ALL SPECIES, SORTING OUTPUT FOR CONCENTRATIONS AND MASS BALANCE
 ----------------------------------------------------------------------------------------------------
     TRANSPORT OUTPUT FOR COMPONENT SPECIES NUMBER    1
     ------------------------------------------------------------

 CONC WILL BE SAVED ON UNIT  132 AT END OF TIME STEP        7, STRESS PERIOD       12

 CLN CONC WILL BE SAVED ON UNIT  188 AT END OF TIME STEP   7, STRESS PERIOD   12
1
  VOLUMETRIC BUDGET FOR ENTIRE MODEL AT END OF TIME STEP       7 IN STRESS PERIOD      12
  ---------------------------------------------------------------------------------------

     CUMULATIVE VOLUMES      L**3       RATES FOR THIS TIME STEP      L**3/T
     ------------------                 ------------------------

           IN:                                      IN:
           ---                                      ---
        MASS STORAGE =         172.4633          MASS STORAGE =           0.5000
    CNST H MASS FLUX =           0.0000      CNST H MASS FLUX =           0.0000
      WELL MASS FLUX =           0.0000        WELL MASS FLUX =           0.0000

            TOTAL IN =         172.4633              TOTAL IN =           0.5000

          OUT:                                     OUT:
          ----                                     ----
        MASS STORAGE =           0.2827          MASS STORAGE =       1.7405E-10
    CNST H MASS FLUX =           0.0000      CNST H MASS FLUX =           0.0000
      WELL MASS FLUX =         172.1806        WELL MASS FLUX =           0.5000

           TOTAL OUT =         172.4633             TOTAL OUT =           0.5000

            IN - OUT =       1.0687E-10              IN - OUT =      -1.7405E-10

 PERCENT DISCREPANCY =           0.00     PERCENT DISCREPANCY =          -0.00






          TIME SUMMARY AT END OF TIME STEP         7 IN STRESS PERIOD        12
                    SECONDS     MINUTES      HOURS       DAYS        YEARS
                    -----------------------------------------------------------
   TIME STEP LENGTH 2.98153E+05  4969.2      82.820      3.4509     9.44791E-03
 STRESS PERIOD TIME 1.28967E+06  21494.      358.24      14.927     4.08670E-02
         TOTAL TIME 2.98017E+07 4.96694E+05  8278.2      344.93     0.94436    
1
 -------------------------------------------------------------------------------------
 
 SOLVING FOR HEAD 

 Outer-Iteration  Inner-Iteration  Backtracking  Number of        Incoming       Outgoing  Maximum HeadChange      Maximum Head Change
     Number           Count           Flag       Backtracks       Residual       Residual           Value              Location
        1                             0             0          0.381396E-01     0.381396E-01
        1                6                                                                       -0.193324                   400           GWF-node number
        1                6                                                                       -0.181786                     3           CLN-node number
        2                             0             0          0.972191E-14     0.972191E-14
        2                1                                                                        0.160055E-06               401           GWF-node number
        2                1                                                                        0.368669E-07                 3           CLN-node number
     2 CALLS TO SPARSE MATRIX SOLVER PACKAGE  IN FLOW TIME STEP       8 STRESS PERIOD      12

 TOTAL OF       2OUTER ITERATIONS
  MAXIMUM CHANGE FOR EACH ITERATION:
   MAX. CHANGE        NODE  MAX. CHANGE        NODE  MAX. CHANGE        NODE  MAX. CHANGE        NODE  MAX. CHANGE        NODE
 ------------------------------------------------------------------------------------------------------------------------------------
  -0.19332    ,        400  0.16005E-06,        401

  MAXIMUM CHANGE FOR CLN NODE AT EACH ITERATION:
   MAX. CHANGE    CLN-CELL  MAX. CHANGE    CLN-CELL  MAX. CHANGE    CLN-CELL  MAX. CHANGE    CLN-CELL  MAX. CHANGE    CLN-CELL
 ------------------------------------------------------------------------------------------------------------------------------------
  -0.18179    ,          3  0.36867E-07,          3

 HEAD/DRAWDOWN PRINTOUT FLAG = 1     TOTAL BUDGET PRINTOUT FLAG = 1
 CELL-BY-CELL FLOW TERM FLAG = 1
 CONCENTRATION PRINTOUT FLAG = 1

 OUTPUT FLAGS FOR ALL LAYERS ARE THE SAME:
   HEAD    DRAWDOWN  HEAD  DRAWDOWN    CONC    CONC
 PRINTOUT  PRINTOUT  SAVE    SAVE    PRINTOUT  SAVE
 ---------------------------------------------------
     0         0       1       1       0       1
 UBUDSVU SAVING "         STORAGE" ON UNIT  50 AT TIME STEP      8, STRESS PERIOD     12
 UBUDSV SAVING "     CLN STORAGE" ON UNIT 144 AT TIME STEP      8, STRESS PERIOD      12
 UBUDSVU SAVING "   CONSTANT HEAD" ON UNIT  50 AT TIME STEP      8, STRESS PERIOD     12
 UBUDSVU SAVING "   FLOW JA FACE " ON UNIT  50 AT TIME STEP      8, STRESS PERIOD     12
 UBUDSVU SAVING "             CLN" ON UNIT  50 AT TIME STEP      8, STRESS PERIOD     12
 UBUDSVU SAVING "  CLN CONST HEAD" ON UNIT 144 AT TIME STEP      8, STRESS PERIOD     12
 UBUDSVU SAVING "   FLOW CLN FACE" ON UNIT 144 AT TIME STEP      8, STRESS PERIOD     12
 UBUDSVU SAVING "             GWF" ON UNIT 144 AT TIME STEP      8, STRESS PERIOD     12
 UBUDSVU SAVING "           WELLS" ON UNIT  50 AT TIME STEP      8, STRESS PERIOD     12
 UBUDSVU SAVING "           WELLS" ON UNIT 144 AT TIME STEP      8, STRESS PERIOD     12

 HEAD WILL BE SAVED ON UNIT       30 AT END OF TIME STEP        8, STRESS PERIOD       12

 DRAWDOWN WILL BE SAVED ON UNIT   31 AT END OF TIME STEP   8, STRESS PERIOD   12

 CLN HEAD WILL BE SAVED ON UNIT   77 AT END OF TIME STEP   8, STRESS PERIOD   12
1
  VOLUMETRIC BUDGET FOR ENTIRE MODEL AT END OF TIME STEP       8 IN STRESS PERIOD      12
  ---------------------------------------------------------------------------------------

     CUMULATIVE VOLUMES      L**3       RATES FOR THIS TIME STEP      L**3/T
     ------------------                 ------------------------

           IN:                                      IN:
           ---                                      ---
             STORAGE =        1745.3385               STORAGE =           5.0000
         CLN STORAGE =           0.0000           CLN STORAGE =           0.0000
       CONSTANT HEAD =           0.0000         CONSTANT HEAD =           0.0000
      CLN CONST HEAD =           0.0000        CLN CONST HEAD =           0.0000
               WELLS =           0.0000                 WELLS =           0.0000

            TOTAL IN =        1745.3385              TOTAL IN =           5.0000

          OUT:                                     OUT:
          ----                                     ----
             STORAGE =           0.0000               STORAGE =           0.0000
         CLN STORAGE =           0.0000           CLN STORAGE =           0.0000
       CONSTANT HEAD =           0.0000         CONSTANT HEAD =           0.0000
      CLN CONST HEAD =           0.0000        CLN CONST HEAD =           0.0000
               WELLS =        1745.3385                 WELLS =           5.0000

           TOTAL OUT =        1745.3385             TOTAL OUT =           5.0000

            IN - OUT =       1.6846E-05              IN - OUT =       5.7615E-08

 PERCENT DISCREPANCY =           0.00     PERCENT DISCREPANCY =           0.00






          TIME SUMMARY AT END OF TIME STEP         8 IN STRESS PERIOD        12
                    SECONDS     MINUTES      HOURS       DAYS        YEARS
                    -----------------------------------------------------------
   TIME STEP LENGTH 3.57784E+05  5963.1      99.384      4.1410     1.13375E-02
 STRESS PERIOD TIME 1.64745E+06  27457.      457.62      19.068     5.22045E-02
         TOTAL TIME 3.01594E+07 5.02657E+05  8377.6      349.07     0.95570    
1
 ------------------------------------------------------------------------------------------------------------
 
 SOLVING FOR TRANSPORT 

 ------------------------------------------------------------------------------------------------------------------------
     1 CALLS TO SPARSE MATRIX SOLVER PACKAGE IN TRANSPORT TIME STEP       8 STRESS PERIOD      12 SPECIES  1

 TOTAL OF       1OUTER ITERATIONS
  MAXIMUM CHANGE FOR EACH ITERATION:
   MAX. CHANGE        NODE  MAX. CHANGE        NODE  MAX. CHANGE        NODE  MAX. CHANGE        NODE  MAX. CHANGE        NODE
 ------------------------------------------------------------------------------------------------------------------------------------
   0.19853E-11,         47

  MAXIMUM CHANGE FOR CLN NODE AT EACH ITERATION:
   MAX. CHANGE    CLN-CELL  MAX. CHANGE    CLN-CELL  MAX. CHANGE    CLN-CELL  MAX. CHANGE    CLN-CELL  MAX. CHANGE    CLN-CELL
 ------------------------------------------------------------------------------------------------------------------------------------
   0.94436E-09,          3
     TRANSPORT SOLUTION COMPLETE FOR COMPONENT SPECIES NUMBER    1
     ------------------------------------------------------------
 UBUDSVU SAVING "    MASS STORAGE" ON UNIT 145 AT TIME STEP      8, STRESS PERIOD     12
 UBUDSVU SAVING "CLN MASS STORAGE" ON UNIT 145 AT TIME STEP      8, STRESS PERIOD     12
 UBUDSVU SAVING "CNST H MASS FLUX" ON UNIT 145 AT TIME STEP      8, STRESS PERIOD     12
 UBUDSVU SAVING "  WELL MASS FLUX" ON UNIT 145 AT TIME STEP      8, STRESS PERIOD     12

 TRANSPORT SOLUTION COMPLETE FOR ALL SPECIES, SORTING OUTPUT FOR CONCENTRATIONS AND MASS BALANCE
 ----------------------------------------------------------------------------------------------------
     TRANSPORT OUTPUT FOR COMPONENT SPECIES NUMBER    1
     ------------------------------------------------------------

 CONC WILL BE SAVED ON UNIT  132 AT END OF TIME STEP        8, STRESS PERIOD       12

 CLN CONC WILL BE SAVED ON UNIT  188 AT END OF TIME STEP   8, STRESS PERIOD   12
1
  VOLUMETRIC BUDGET FOR ENTIRE MODEL AT END OF TIME STEP       8 IN STRESS PERIOD      12
  ---------------------------------------------------------------------------------------

     CUMULATIVE VOLUMES      L**3       RATES FOR THIS TIME STEP      L**3/T
     ------------------                 ------------------------

           IN:                                      IN:
           ---                                      ---
        MASS STORAGE =         174.5339          MASS STORAGE =           0.5000
    CNST H MASS FLUX =           0.0000      CNST H MASS FLUX =           0.0000
      WELL MASS FLUX =           0.0000        WELL MASS FLUX =           0.0000

            TOTAL IN =         174.5339              TOTAL IN =           0.5000

          OUT:                                     OUT:
          ----                                     ----
        MASS STORAGE =           0.2827          MASS STORAGE =       4.7053E-10
    CNST H MASS FLUX =           0.0000      CNST H MASS FLUX =           0.0000
      WELL MASS FLUX =         174.2511        WELL MASS FLUX =           0.5000

           TOTAL OUT =         174.5339             TOTAL OUT =           0.5000

            IN - OUT =       1.0678E-10              IN - OUT =      -4.7053E-10

 PERCENT DISCREPANCY =           0.00     PERCENT DISCREPANCY =          -0.00






          TIME SUMMARY AT END OF TIME STEP         8 IN STRESS PERIOD        12
                    SECONDS     MINUTES      HOURS       DAYS        YEARS
                    -----------------------------------------------------------
   TIME STEP LENGTH 3.57784E+05  5963.1      99.384      4.1410     1.13375E-02
 STRESS PERIOD TIME 1.64745E+06  27457.      457.62      19.068     5.22045E-02
         TOTAL TIME 3.01594E+07 5.02657E+05  8377.6      349.07     0.95570    
1
 -------------------------------------------------------------------------------------
 
 SOLVING FOR HEAD 

 Outer-Iteration  Inner-Iteration  Backtracking  Number of        Incoming       Outgoing  Maximum HeadChange      Maximum Head Change
     Number           Count           Flag       Backtracks       Residual       Residual           Value              Location
        1                             0             0          0.380478E-01     0.380478E-01
        1                6                                                                       -0.231467                   400           GWF-node number
        1                6                                                                       -0.217702                     1           CLN-node number
        2                             0             0          0.531876E-13     0.531876E-13
        2                1                                                                        0.404600E-06               417           GWF-node number
        2                1                                                                        0.382672E-06                 3           CLN-node number
     2 CALLS TO SPARSE MATRIX SOLVER PACKAGE  IN FLOW TIME STEP       9 STRESS PERIOD      12

 TOTAL OF       2OUTER ITERATIONS
  MAXIMUM CHANGE FOR EACH ITERATION:
   MAX. CHANGE        NODE  MAX. CHANGE        NODE  MAX. CHANGE        NODE  MAX. CHANGE        NODE  MAX. CHANGE        NODE
 ------------------------------------------------------------------------------------------------------------------------------------
  -0.23147    ,        400  0.40460E-06,        417

  MAXIMUM CHANGE FOR CLN NODE AT EACH ITERATION:
   MAX. CHANGE    CLN-CELL  MAX. CHANGE    CLN-CELL  MAX. CHANGE    CLN-CELL  MAX. CHANGE    CLN-CELL  MAX. CHANGE    CLN-CELL
 ------------------------------------------------------------------------------------------------------------------------------------
  -0.21770    ,          1  0.38267E-06,          3

 HEAD/DRAWDOWN PRINTOUT FLAG = 1     TOTAL BUDGET PRINTOUT FLAG = 1
 CELL-BY-CELL FLOW TERM FLAG = 1
 CONCENTRATION PRINTOUT FLAG = 1

 OUTPUT FLAGS FOR ALL LAYERS ARE THE SAME:
   HEAD    DRAWDOWN  HEAD  DRAWDOWN    CONC    CONC
 PRINTOUT  PRINTOUT  SAVE    SAVE    PRINTOUT  SAVE
 ---------------------------------------------------
     0         0       1       1       0       1
 UBUDSVU SAVING "         STORAGE" ON UNIT  50 AT TIME STEP      9, STRESS PERIOD     12
 UBUDSV SAVING "     CLN STORAGE" ON UNIT 144 AT TIME STEP      9, STRESS PERIOD      12
 UBUDSVU SAVING "   CONSTANT HEAD" ON UNIT  50 AT TIME STEP      9, STRESS PERIOD     12
 UBUDSVU SAVING "   FLOW JA FACE " ON UNIT  50 AT TIME STEP      9, STRESS PERIOD     12
 UBUDSVU SAVING "             CLN" ON UNIT  50 AT TIME STEP      9, STRESS PERIOD     12
 UBUDSVU SAVING "  CLN CONST HEAD" ON UNIT 144 AT TIME STEP      9, STRESS PERIOD     12
 UBUDSVU SAVING "   FLOW CLN FACE" ON UNIT 144 AT TIME STEP      9, STRESS PERIOD     12
 UBUDSVU SAVING "             GWF" ON UNIT 144 AT TIME STEP      9, STRESS PERIOD     12
 UBUDSVU SAVING "           WELLS" ON UNIT  50 AT TIME STEP      9, STRESS PERIOD     12
 UBUDSVU SAVING "           WELLS" ON UNIT 144 AT TIME STEP      9, STRESS PERIOD     12

 HEAD WILL BE SAVED ON UNIT       30 AT END OF TIME STEP        9, STRESS PERIOD       12

 DRAWDOWN WILL BE SAVED ON UNIT   31 AT END OF TIME STEP   9, STRESS PERIOD   12

 CLN HEAD WILL BE SAVED ON UNIT   77 AT END OF TIME STEP   9, STRESS PERIOD   12
1
  VOLUMETRIC BUDGET FOR ENTIRE MODEL AT END OF TIME STEP       9 IN STRESS PERIOD      12
  ---------------------------------------------------------------------------------------

     CUMULATIVE VOLUMES      L**3       RATES FOR THIS TIME STEP      L**3/T
     ------------------                 ------------------------

           IN:                                      IN:
           ---                                      ---
             STORAGE =        1770.1846               STORAGE =           5.0000
         CLN STORAGE =           0.0000           CLN STORAGE =           0.0000
       CONSTANT HEAD =           0.0000         CONSTANT HEAD =           0.0000
      CLN CONST HEAD =           0.0000        CLN CONST HEAD =           0.0000
               WELLS =           0.0000                 WELLS =           0.0000

            TOTAL IN =        1770.1846              TOTAL IN =           5.0000

          OUT:                                     OUT:
          ----                                     ----
             STORAGE =           0.0000               STORAGE =           0.0000
         CLN STORAGE =           0.0000           CLN STORAGE =           0.0000
       CONSTANT HEAD =           0.0000         CONSTANT HEAD =           0.0000
      CLN CONST HEAD =           0.0000        CLN CONST HEAD =           0.0000
               WELLS =        1770.1846                 WELLS =           5.0000

           TOTAL OUT =        1770.1846             TOTAL OUT =           5.0000

            IN - OUT =       1.6942E-05              IN - OUT =       1.9304E-08

 PERCENT DISCREPANCY =           0.00     PERCENT DISCREPANCY =           0.00






          TIME SUMMARY AT END OF TIME STEP         9 IN STRESS PERIOD        12
                    SECONDS     MINUTES      HOURS       DAYS        YEARS
                    -----------------------------------------------------------
   TIME STEP LENGTH 4.29341E+05  7155.7      119.26      4.9692     1.36050E-02
 STRESS PERIOD TIME 2.07679E+06  34613.      576.89      24.037     6.58095E-02
         TOTAL TIME 3.05888E+07 5.09813E+05  8496.9      354.04     0.96930    
1
 ------------------------------------------------------------------------------------------------------------
 
 SOLVING FOR TRANSPORT 

 ------------------------------------------------------------------------------------------------------------------------
     1 CALLS TO SPARSE MATRIX SOLVER PACKAGE IN TRANSPORT TIME STEP       9 STRESS PERIOD      12 SPECIES  1

 TOTAL OF       1OUTER ITERATIONS
  MAXIMUM CHANGE FOR EACH ITERATION:
   MAX. CHANGE        NODE  MAX. CHANGE        NODE  MAX. CHANGE        NODE  MAX. CHANGE        NODE  MAX. CHANGE        NODE
 ------------------------------------------------------------------------------------------------------------------------------------
   0.69876E-10,        191

  MAXIMUM CHANGE FOR CLN NODE AT EACH ITERATION:
   MAX. CHANGE    CLN-CELL  MAX. CHANGE    CLN-CELL  MAX. CHANGE    CLN-CELL  MAX. CHANGE    CLN-CELL  MAX. CHANGE    CLN-CELL
 ------------------------------------------------------------------------------------------------------------------------------------
  -0.20228E-08,          3
     TRANSPORT SOLUTION COMPLETE FOR COMPONENT SPECIES NUMBER    1
     ------------------------------------------------------------
 UBUDSVU SAVING "    MASS STORAGE" ON UNIT 145 AT TIME STEP      9, STRESS PERIOD     12
 UBUDSVU SAVING "CLN MASS STORAGE" ON UNIT 145 AT TIME STEP      9, STRESS PERIOD     12
 UBUDSVU SAVING "CNST H MASS FLUX" ON UNIT 145 AT TIME STEP      9, STRESS PERIOD     12
 UBUDSVU SAVING "  WELL MASS FLUX" ON UNIT 145 AT TIME STEP      9, STRESS PERIOD     12

 TRANSPORT SOLUTION COMPLETE FOR ALL SPECIES, SORTING OUTPUT FOR CONCENTRATIONS AND MASS BALANCE
 ----------------------------------------------------------------------------------------------------
     TRANSPORT OUTPUT FOR COMPONENT SPECIES NUMBER    1
     ------------------------------------------------------------

 CONC WILL BE SAVED ON UNIT  132 AT END OF TIME STEP        9, STRESS PERIOD       12

 CLN CONC WILL BE SAVED ON UNIT  188 AT END OF TIME STEP   9, STRESS PERIOD   12
1
  VOLUMETRIC BUDGET FOR ENTIRE MODEL AT END OF TIME STEP       9 IN STRESS PERIOD      12
  ---------------------------------------------------------------------------------------

     CUMULATIVE VOLUMES      L**3       RATES FOR THIS TIME STEP      L**3/T
     ------------------                 ------------------------

           IN:                                      IN:
           ---                                      ---
        MASS STORAGE =         177.0185          MASS STORAGE =           0.5000
    CNST H MASS FLUX =           0.0000      CNST H MASS FLUX =           0.0000
      WELL MASS FLUX =           0.0000        WELL MASS FLUX =           0.0000

            TOTAL IN =         177.0185              TOTAL IN =           0.5000

          OUT:                                     OUT:
          ----                                     ----
        MASS STORAGE =           0.2827          MASS STORAGE =           0.0000
    CNST H MASS FLUX =           0.0000      CNST H MASS FLUX =           0.0000
      WELL MASS FLUX =         176.7357        WELL MASS FLUX =           0.5000

           TOTAL OUT =         177.0185             TOTAL OUT =           0.5000

            IN - OUT =       1.4151E-10              IN - OUT =           0.0000

 PERCENT DISCREPANCY =           0.00     PERCENT DISCREPANCY =           0.00






          TIME SUMMARY AT END OF TIME STEP         9 IN STRESS PERIOD        12
                    SECONDS     MINUTES      HOURS       DAYS        YEARS
                    -----------------------------------------------------------
   TIME STEP LENGTH 4.29341E+05  7155.7      119.26      4.9692     1.36050E-02
 STRESS PERIOD TIME 2.07679E+06  34613.      576.89      24.037     6.58095E-02
         TOTAL TIME 3.05888E+07 5.09813E+05  8496.9      354.04     0.96930    
1
 -------------------------------------------------------------------------------------
 
 SOLVING FOR HEAD 

 Outer-Iteration  Inner-Iteration  Backtracking  Number of        Incoming       Outgoing  Maximum HeadChange      Maximum Head Change
     Number           Count           Flag       Backtracks       Residual       Residual           Value              Location
        1                             0             0          0.379390E-01     0.379390E-01
        1                7                                                                       -0.277014                   400           GWF-node number
        1                7                                                                       -0.260612                     1           CLN-node number
        2                             0             0          0.235715E-14     0.235715E-14
        2                1                                                                       -0.610433E-07               417           GWF-node number
        2                1                                                                       -0.535949E-07                 3           CLN-node number
     2 CALLS TO SPARSE MATRIX SOLVER PACKAGE  IN FLOW TIME STEP      10 STRESS PERIOD      12

 TOTAL OF       2OUTER ITERATIONS
  MAXIMUM CHANGE FOR EACH ITERATION:
   MAX. CHANGE        NODE  MAX. CHANGE        NODE  MAX. CHANGE        NODE  MAX. CHANGE        NODE  MAX. CHANGE        NODE
 ------------------------------------------------------------------------------------------------------------------------------------
  -0.27701    ,        400 -0.61043E-07,        417

  MAXIMUM CHANGE FOR CLN NODE AT EACH ITERATION:
   MAX. CHANGE    CLN-CELL  MAX. CHANGE    CLN-CELL  MAX. CHANGE    CLN-CELL  MAX. CHANGE    CLN-CELL  MAX. CHANGE    CLN-CELL
 ------------------------------------------------------------------------------------------------------------------------------------
  -0.26061    ,          1 -0.53595E-07,          3

 HEAD/DRAWDOWN PRINTOUT FLAG = 1     TOTAL BUDGET PRINTOUT FLAG = 1
 CELL-BY-CELL FLOW TERM FLAG = 1
 CONCENTRATION PRINTOUT FLAG = 1

 OUTPUT FLAGS FOR ALL LAYERS ARE THE SAME:
   HEAD    DRAWDOWN  HEAD  DRAWDOWN    CONC    CONC
 PRINTOUT  PRINTOUT  SAVE    SAVE    PRINTOUT  SAVE
 ---------------------------------------------------
     0         0       1       1       0       1
 UBUDSVU SAVING "         STORAGE" ON UNIT  50 AT TIME STEP     10, STRESS PERIOD     12
 UBUDSV SAVING "     CLN STORAGE" ON UNIT 144 AT TIME STEP     10, STRESS PERIOD      12
 UBUDSVU SAVING "   CONSTANT HEAD" ON UNIT  50 AT TIME STEP     10, STRESS PERIOD     12
 UBUDSVU SAVING "   FLOW JA FACE " ON UNIT  50 AT TIME STEP     10, STRESS PERIOD     12
 UBUDSVU SAVING "             CLN" ON UNIT  50 AT TIME STEP     10, STRESS PERIOD     12
 UBUDSVU SAVING "  CLN CONST HEAD" ON UNIT 144 AT TIME STEP     10, STRESS PERIOD     12
 UBUDSVU SAVING "   FLOW CLN FACE" ON UNIT 144 AT TIME STEP     10, STRESS PERIOD     12
 UBUDSVU SAVING "             GWF" ON UNIT 144 AT TIME STEP     10, STRESS PERIOD     12
 UBUDSVU SAVING "           WELLS" ON UNIT  50 AT TIME STEP     10, STRESS PERIOD     12
 UBUDSVU SAVING "           WELLS" ON UNIT 144 AT TIME STEP     10, STRESS PERIOD     12

 HEAD WILL BE SAVED ON UNIT       30 AT END OF TIME STEP       10, STRESS PERIOD       12

 DRAWDOWN WILL BE SAVED ON UNIT   31 AT END OF TIME STEP  10, STRESS PERIOD   12

 CLN HEAD WILL BE SAVED ON UNIT   77 AT END OF TIME STEP  10, STRESS PERIOD   12
1
  VOLUMETRIC BUDGET FOR ENTIRE MODEL AT END OF TIME STEP      10 IN STRESS PERIOD      12
  ---------------------------------------------------------------------------------------

     CUMULATIVE VOLUMES      L**3       RATES FOR THIS TIME STEP      L**3/T
     ------------------                 ------------------------

           IN:                                      IN:
           ---                                      ---
             STORAGE =        1799.9999               STORAGE =           5.0000
         CLN STORAGE =           0.0000           CLN STORAGE =           0.0000
       CONSTANT HEAD =           0.0000         CONSTANT HEAD =           0.0000
      CLN CONST HEAD =           0.0000        CLN CONST HEAD =           0.0000
               WELLS =           0.0000                 WELLS =           0.0000

            TOTAL IN =        1799.9999              TOTAL IN =           5.0000

          OUT:                                     OUT:
          ----                                     ----
             STORAGE =           0.0000               STORAGE =           0.0000
         CLN STORAGE =           0.0000           CLN STORAGE =           0.0000
       CONSTANT HEAD =           0.0000         CONSTANT HEAD =           0.0000
      CLN CONST HEAD =           0.0000        CLN CONST HEAD =           0.0000
               WELLS =        1799.9999                 WELLS =           5.0000

           TOTAL OUT =        1799.9999             TOTAL OUT =           5.0000

            IN - OUT =       1.7238E-05              IN - OUT =       4.9671E-08

 PERCENT DISCREPANCY =           0.00     PERCENT DISCREPANCY =           0.00






          TIME SUMMARY AT END OF TIME STEP        10 IN STRESS PERIOD        12
                    SECONDS     MINUTES      HOURS       DAYS        YEARS
                    -----------------------------------------------------------
   TIME STEP LENGTH 5.15209E+05  8586.8      143.11      5.9631     1.63260E-02
 STRESS PERIOD TIME 2.59200E+06  43200.      720.00      30.000     8.21355E-02
         TOTAL TIME 3.11040E+07 5.18400E+05  8640.0      360.00     0.98563    
1
 ------------------------------------------------------------------------------------------------------------
 
 SOLVING FOR TRANSPORT 

 ------------------------------------------------------------------------------------------------------------------------
     1 CALLS TO SPARSE MATRIX SOLVER PACKAGE IN TRANSPORT TIME STEP      10 STRESS PERIOD      12 SPECIES  1

 TOTAL OF       1OUTER ITERATIONS
  MAXIMUM CHANGE FOR EACH ITERATION:
   MAX. CHANGE        NODE  MAX. CHANGE        NODE  MAX. CHANGE        NODE  MAX. CHANGE        NODE  MAX. CHANGE        NODE
 ------------------------------------------------------------------------------------------------------------------------------------
  -0.23895E-10,        191

  MAXIMUM CHANGE FOR CLN NODE AT EACH ITERATION:
   MAX. CHANGE    CLN-CELL  MAX. CHANGE    CLN-CELL  MAX. CHANGE    CLN-CELL  MAX. CHANGE    CLN-CELL  MAX. CHANGE    CLN-CELL
 ------------------------------------------------------------------------------------------------------------------------------------
   0.16225E-08,          3
     TRANSPORT SOLUTION COMPLETE FOR COMPONENT SPECIES NUMBER    1
     ------------------------------------------------------------
 UBUDSVU SAVING "    MASS STORAGE" ON UNIT 145 AT TIME STEP     10, STRESS PERIOD     12
 UBUDSVU SAVING "CLN MASS STORAGE" ON UNIT 145 AT TIME STEP     10, STRESS PERIOD     12
 UBUDSVU SAVING "CNST H MASS FLUX" ON UNIT 145 AT TIME STEP     10, STRESS PERIOD     12
 UBUDSVU SAVING "  WELL MASS FLUX" ON UNIT 145 AT TIME STEP     10, STRESS PERIOD     12

 TRANSPORT SOLUTION COMPLETE FOR ALL SPECIES, SORTING OUTPUT FOR CONCENTRATIONS AND MASS BALANCE
 ----------------------------------------------------------------------------------------------------
     TRANSPORT OUTPUT FOR COMPONENT SPECIES NUMBER    1
     ------------------------------------------------------------

 CONC WILL BE SAVED ON UNIT  132 AT END OF TIME STEP       10, STRESS PERIOD       12

 CLN CONC WILL BE SAVED ON UNIT  188 AT END OF TIME STEP  10, STRESS PERIOD   12
1
  VOLUMETRIC BUDGET FOR ENTIRE MODEL AT END OF TIME STEP      10 IN STRESS PERIOD      12
  ---------------------------------------------------------------------------------------

     CUMULATIVE VOLUMES      L**3       RATES FOR THIS TIME STEP      L**3/T
     ------------------                 ------------------------

           IN:                                      IN:
           ---                                      ---
        MASS STORAGE =         180.0000          MASS STORAGE =           0.5000
    CNST H MASS FLUX =           0.0000      CNST H MASS FLUX =           0.0000
      WELL MASS FLUX =           0.0000        WELL MASS FLUX =           0.0000

            TOTAL IN =         180.0000              TOTAL IN =           0.5000

          OUT:                                     OUT:
          ----                                     ----
        MASS STORAGE =           0.2827          MASS STORAGE =       7.5789E-10
    CNST H MASS FLUX =           0.0000      CNST H MASS FLUX =           0.0000
      WELL MASS FLUX =         179.7173        WELL MASS FLUX =           0.5000

           TOTAL OUT =         180.0000             TOTAL OUT =           0.5000

            IN - OUT =       1.3608E-10              IN - OUT =      -7.5789E-10

 PERCENT DISCREPANCY =           0.00     PERCENT DISCREPANCY =          -0.00






          TIME SUMMARY AT END OF TIME STEP        10 IN STRESS PERIOD        12
                    SECONDS     MINUTES      HOURS       DAYS        YEARS
                    -----------------------------------------------------------
   TIME STEP LENGTH 5.15209E+05  8586.8      143.11      5.9631     1.63260E-02
 STRESS PERIOD TIME 2.59200E+06  43200.      720.00      30.000     8.21355E-02
         TOTAL TIME 3.11040E+07 5.18400E+05  8640.0      360.00     0.98563    
1
1
                            STRESS PERIOD NO.   13, LENGTH =   30.00000    
                            -----------------------------------------------

                              NUMBER OF TIME STEPS =        10

                               MULTIPLIER FOR DELT =     1.200

                            INITIAL TIME STEP SIZE =   1.155682    

 WEL -- WELL PACKAGE, VERSION 7, 5/2/2005 INPUT READ FROM UNIT   12

 WELL NO.  CLN-NODE       STRESS FACTOR         C01             
 ---------------------------------------------------------------
        1            3      -5.000           0.000           0.000    

      1 WELL 
 -------------------------------------------------------------------------------------
 
 SOLVING FOR HEAD 

 Outer-Iteration  Inner-Iteration  Backtracking  Number of        Incoming       Outgoing  Maximum HeadChange      Maximum Head Change
     Number           Count           Flag       Backtracks       Residual       Residual           Value              Location
        1                             0             0          0.378105E-01     0.378105E-01
        1                5                                                                       -0.536591E-01               400           GWF-node number
        1                5                                                                       -0.504848E-01                 3           CLN-node number
        2                             0             0          0.336635E-14     0.336635E-14
        2                1                                                                        0.697463E-07               190           GWF-node number
        2                1                                                                        0.195847E-06                 3           CLN-node number


     2 CALLS TO SPARSE MATRIX SOLVER PACKAGE  IN FLOW TIME STEP       1 STRESS PERIOD      13

 TOTAL OF       2OUTER ITERATIONS
  MAXIMUM CHANGE FOR EACH ITERATION:
   MAX. CHANGE        NODE  MAX. CHANGE        NODE  MAX. CHANGE        NODE  MAX. CHANGE        NODE  MAX. CHANGE        NODE
 ------------------------------------------------------------------------------------------------------------------------------------
  -0.53659E-01,        400  0.69746E-07,        190

  MAXIMUM CHANGE FOR CLN NODE AT EACH ITERATION:
   MAX. CHANGE    CLN-CELL  MAX. CHANGE    CLN-CELL  MAX. CHANGE    CLN-CELL  MAX. CHANGE    CLN-CELL  MAX. CHANGE    CLN-CELL
 ------------------------------------------------------------------------------------------------------------------------------------
  -0.50485E-01,          3  0.19585E-06,          3

 HEAD/DRAWDOWN PRINTOUT FLAG = 1     TOTAL BUDGET PRINTOUT FLAG = 1
 CELL-BY-CELL FLOW TERM FLAG = 1
 CONCENTRATION PRINTOUT FLAG = 1

 OUTPUT FLAGS FOR ALL LAYERS ARE THE SAME:
   HEAD    DRAWDOWN  HEAD  DRAWDOWN    CONC    CONC
 PRINTOUT  PRINTOUT  SAVE    SAVE    PRINTOUT  SAVE
 ---------------------------------------------------
     0         0       1       1       0       1
 UBUDSVU SAVING "         STORAGE" ON UNIT  50 AT TIME STEP      1, STRESS PERIOD     13
 UBUDSV SAVING "     CLN STORAGE" ON UNIT 144 AT TIME STEP      1, STRESS PERIOD      13
 UBUDSVU SAVING "   CONSTANT HEAD" ON UNIT  50 AT TIME STEP      1, STRESS PERIOD     13
 UBUDSVU SAVING "   FLOW JA FACE " ON UNIT  50 AT TIME STEP      1, STRESS PERIOD     13
 UBUDSVU SAVING "             CLN" ON UNIT  50 AT TIME STEP      1, STRESS PERIOD     13
 UBUDSVU SAVING "  CLN CONST HEAD" ON UNIT 144 AT TIME STEP      1, STRESS PERIOD     13
 UBUDSVU SAVING "   FLOW CLN FACE" ON UNIT 144 AT TIME STEP      1, STRESS PERIOD     13
 UBUDSVU SAVING "             GWF" ON UNIT 144 AT TIME STEP      1, STRESS PERIOD     13
 UBUDSVU SAVING "           WELLS" ON UNIT  50 AT TIME STEP      1, STRESS PERIOD     13
 UBUDSVU SAVING "           WELLS" ON UNIT 144 AT TIME STEP      1, STRESS PERIOD     13

 HEAD WILL BE SAVED ON UNIT       30 AT END OF TIME STEP        1, STRESS PERIOD       13

 DRAWDOWN WILL BE SAVED ON UNIT   31 AT END OF TIME STEP   1, STRESS PERIOD   13

 CLN HEAD WILL BE SAVED ON UNIT   77 AT END OF TIME STEP   1, STRESS PERIOD   13
1
  VOLUMETRIC BUDGET FOR ENTIRE MODEL AT END OF TIME STEP       1 IN STRESS PERIOD      13
  ---------------------------------------------------------------------------------------

     CUMULATIVE VOLUMES      L**3       RATES FOR THIS TIME STEP      L**3/T
     ------------------                 ------------------------

           IN:                                      IN:
           ---                                      ---
             STORAGE =        1805.7784               STORAGE =           5.0000
         CLN STORAGE =           0.0000           CLN STORAGE =           0.0000
       CONSTANT HEAD =           0.0000         CONSTANT HEAD =           0.0000
      CLN CONST HEAD =           0.0000        CLN CONST HEAD =           0.0000
               WELLS =           0.0000                 WELLS =           0.0000

            TOTAL IN =        1805.7784              TOTAL IN =           5.0000

          OUT:                                     OUT:
          ----                                     ----
             STORAGE =           0.0000               STORAGE =           0.0000
         CLN STORAGE =           0.0000           CLN STORAGE =           0.0000
       CONSTANT HEAD =           0.0000         CONSTANT HEAD =           0.0000
      CLN CONST HEAD =           0.0000        CLN CONST HEAD =           0.0000
               WELLS =        1805.7783                 WELLS =           5.0000

           TOTAL OUT =        1805.7783             TOTAL OUT =           5.0000

            IN - OUT =       1.7304E-05              IN - OUT =       5.6852E-08

 PERCENT DISCREPANCY =           0.00     PERCENT DISCREPANCY =           0.00






          TIME SUMMARY AT END OF TIME STEP         1 IN STRESS PERIOD        13
                    SECONDS     MINUTES      HOURS       DAYS        YEARS
                    -----------------------------------------------------------
   TIME STEP LENGTH  99851.      1664.2      27.736      1.1557     3.16409E-03
 STRESS PERIOD TIME  99851.      1664.2      27.736      1.1557     3.16409E-03
         TOTAL TIME 3.12038E+07 5.20064E+05  8667.7      361.16     0.98879    
1
 ------------------------------------------------------------------------------------------------------------
 
 SOLVING FOR TRANSPORT 

 ------------------------------------------------------------------------------------------------------------------------
     1 CALLS TO SPARSE MATRIX SOLVER PACKAGE IN TRANSPORT TIME STEP       1 STRESS PERIOD      13 SPECIES  1

 TOTAL OF       1OUTER ITERATIONS
  MAXIMUM CHANGE FOR EACH ITERATION:
   MAX. CHANGE        NODE  MAX. CHANGE        NODE  MAX. CHANGE        NODE  MAX. CHANGE        NODE  MAX. CHANGE        NODE
 ------------------------------------------------------------------------------------------------------------------------------------
   0.61203E-11,        191

  MAXIMUM CHANGE FOR CLN NODE AT EACH ITERATION:
   MAX. CHANGE    CLN-CELL  MAX. CHANGE    CLN-CELL  MAX. CHANGE    CLN-CELL  MAX. CHANGE    CLN-CELL  MAX. CHANGE    CLN-CELL
 ------------------------------------------------------------------------------------------------------------------------------------
  -0.63314E-09,          3
     TRANSPORT SOLUTION COMPLETE FOR COMPONENT SPECIES NUMBER    1
     ------------------------------------------------------------
 UBUDSVU SAVING "    MASS STORAGE" ON UNIT 145 AT TIME STEP      1, STRESS PERIOD     13
 UBUDSVU SAVING "CLN MASS STORAGE" ON UNIT 145 AT TIME STEP      1, STRESS PERIOD     13
 UBUDSVU SAVING "CNST H MASS FLUX" ON UNIT 145 AT TIME STEP      1, STRESS PERIOD     13
 UBUDSVU SAVING "  WELL MASS FLUX" ON UNIT 145 AT TIME STEP      1, STRESS PERIOD     13

 TRANSPORT SOLUTION COMPLETE FOR ALL SPECIES, SORTING OUTPUT FOR CONCENTRATIONS AND MASS BALANCE
 ----------------------------------------------------------------------------------------------------
     TRANSPORT OUTPUT FOR COMPONENT SPECIES NUMBER    1
     ------------------------------------------------------------

 CONC WILL BE SAVED ON UNIT  132 AT END OF TIME STEP        1, STRESS PERIOD       13

 CLN CONC WILL BE SAVED ON UNIT  188 AT END OF TIME STEP   1, STRESS PERIOD   13
1
  VOLUMETRIC BUDGET FOR ENTIRE MODEL AT END OF TIME STEP       1 IN STRESS PERIOD      13
  ---------------------------------------------------------------------------------------

     CUMULATIVE VOLUMES      L**3       RATES FOR THIS TIME STEP      L**3/T
     ------------------                 ------------------------

           IN:                                      IN:
           ---                                      ---
        MASS STORAGE =         180.5778          MASS STORAGE =           0.5000
    CNST H MASS FLUX =           0.0000      CNST H MASS FLUX =           0.0000
      WELL MASS FLUX =           0.0000        WELL MASS FLUX =           0.0000

            TOTAL IN =         180.5778              TOTAL IN =           0.5000

          OUT:                                     OUT:
          ----                                     ----
        MASS STORAGE =           0.2827          MASS STORAGE =       3.9683E-10
    CNST H MASS FLUX =           0.0000      CNST H MASS FLUX =           0.0000
      WELL MASS FLUX =         180.2951        WELL MASS FLUX =           0.5000

           TOTAL OUT =         180.5778             TOTAL OUT =           0.5000

            IN - OUT =       1.3665E-10              IN - OUT =      -3.9683E-10

 PERCENT DISCREPANCY =           0.00     PERCENT DISCREPANCY =          -0.00






          TIME SUMMARY AT END OF TIME STEP         1 IN STRESS PERIOD        13
                    SECONDS     MINUTES      HOURS       DAYS        YEARS
                    -----------------------------------------------------------
   TIME STEP LENGTH  99851.      1664.2      27.736      1.1557     3.16409E-03
 STRESS PERIOD TIME  99851.      1664.2      27.736      1.1557     3.16409E-03
         TOTAL TIME 3.12038E+07 5.20064E+05  8667.7      361.16     0.98879    
1
 -------------------------------------------------------------------------------------
 
 SOLVING FOR HEAD 

 Outer-Iteration  Inner-Iteration  Backtracking  Number of        Incoming       Outgoing  Maximum HeadChange      Maximum Head Change
     Number           Count           Flag       Backtracks       Residual       Residual           Value              Location
        1                             0             0          0.377857E-01     0.377857E-01
        1                5                                                                       -0.643507E-01               400           GWF-node number
        1                5                                                                       -0.605480E-01                 1           CLN-node number
        2                             0             0          0.379903E-14     0.379903E-14
        2                1                                                                       -0.611874E-08               406           GWF-node number
        2                1                                                                        0.172311E-07                 3           CLN-node number
     2 CALLS TO SPARSE MATRIX SOLVER PACKAGE  IN FLOW TIME STEP       2 STRESS PERIOD      13

 TOTAL OF       2OUTER ITERATIONS
  MAXIMUM CHANGE FOR EACH ITERATION:
   MAX. CHANGE        NODE  MAX. CHANGE        NODE  MAX. CHANGE        NODE  MAX. CHANGE        NODE  MAX. CHANGE        NODE
 ------------------------------------------------------------------------------------------------------------------------------------
  -0.64351E-01,        400 -0.61187E-08,        406

  MAXIMUM CHANGE FOR CLN NODE AT EACH ITERATION:
   MAX. CHANGE    CLN-CELL  MAX. CHANGE    CLN-CELL  MAX. CHANGE    CLN-CELL  MAX. CHANGE    CLN-CELL  MAX. CHANGE    CLN-CELL
 ------------------------------------------------------------------------------------------------------------------------------------
  -0.60548E-01,          1  0.17231E-07,          3

 HEAD/DRAWDOWN PRINTOUT FLAG = 1     TOTAL BUDGET PRINTOUT FLAG = 1
 CELL-BY-CELL FLOW TERM FLAG = 1
 CONCENTRATION PRINTOUT FLAG = 1

 OUTPUT FLAGS FOR ALL LAYERS ARE THE SAME:
   HEAD    DRAWDOWN  HEAD  DRAWDOWN    CONC    CONC
 PRINTOUT  PRINTOUT  SAVE    SAVE    PRINTOUT  SAVE
 ---------------------------------------------------
     0         0       1       1       0       1
 UBUDSVU SAVING "         STORAGE" ON UNIT  50 AT TIME STEP      2, STRESS PERIOD     13
 UBUDSV SAVING "     CLN STORAGE" ON UNIT 144 AT TIME STEP      2, STRESS PERIOD      13
 UBUDSVU SAVING "   CONSTANT HEAD" ON UNIT  50 AT TIME STEP      2, STRESS PERIOD     13
 UBUDSVU SAVING "   FLOW JA FACE " ON UNIT  50 AT TIME STEP      2, STRESS PERIOD     13
 UBUDSVU SAVING "             CLN" ON UNIT  50 AT TIME STEP      2, STRESS PERIOD     13
 UBUDSVU SAVING "  CLN CONST HEAD" ON UNIT 144 AT TIME STEP      2, STRESS PERIOD     13
 UBUDSVU SAVING "   FLOW CLN FACE" ON UNIT 144 AT TIME STEP      2, STRESS PERIOD     13
 UBUDSVU SAVING "             GWF" ON UNIT 144 AT TIME STEP      2, STRESS PERIOD     13
 UBUDSVU SAVING "           WELLS" ON UNIT  50 AT TIME STEP      2, STRESS PERIOD     13
 UBUDSVU SAVING "           WELLS" ON UNIT 144 AT TIME STEP      2, STRESS PERIOD     13

 HEAD WILL BE SAVED ON UNIT       30 AT END OF TIME STEP        2, STRESS PERIOD       13

 DRAWDOWN WILL BE SAVED ON UNIT   31 AT END OF TIME STEP   2, STRESS PERIOD   13

 CLN HEAD WILL BE SAVED ON UNIT   77 AT END OF TIME STEP   2, STRESS PERIOD   13
1
  VOLUMETRIC BUDGET FOR ENTIRE MODEL AT END OF TIME STEP       2 IN STRESS PERIOD      13
  ---------------------------------------------------------------------------------------

     CUMULATIVE VOLUMES      L**3       RATES FOR THIS TIME STEP      L**3/T
     ------------------                 ------------------------

           IN:                                      IN:
           ---                                      ---
             STORAGE =        1812.7125               STORAGE =           5.0000
         CLN STORAGE =           0.0000           CLN STORAGE =           0.0000
       CONSTANT HEAD =           0.0000         CONSTANT HEAD =           0.0000
      CLN CONST HEAD =           0.0000        CLN CONST HEAD =           0.0000
               WELLS =           0.0000                 WELLS =           0.0000

            TOTAL IN =        1812.7125              TOTAL IN =           5.0000

          OUT:                                     OUT:
          ----                                     ----
             STORAGE =           0.0000               STORAGE =           0.0000
         CLN STORAGE =           0.0000           CLN STORAGE =           0.0000
       CONSTANT HEAD =           0.0000         CONSTANT HEAD =           0.0000
      CLN CONST HEAD =           0.0000        CLN CONST HEAD =           0.0000
               WELLS =        1812.7124                 WELLS =           5.0000

           TOTAL OUT =        1812.7124             TOTAL OUT =           5.0000

            IN - OUT =       1.7412E-05              IN - OUT =       7.7885E-08

 PERCENT DISCREPANCY =           0.00     PERCENT DISCREPANCY =           0.00






          TIME SUMMARY AT END OF TIME STEP         2 IN STRESS PERIOD        13
                    SECONDS     MINUTES      HOURS       DAYS        YEARS
                    -----------------------------------------------------------
   TIME STEP LENGTH 1.19821E+05  1997.0      33.284      1.3868     3.79690E-03
 STRESS PERIOD TIME 2.19672E+05  3661.2      61.020      2.5425     6.96099E-03
         TOTAL TIME 3.13237E+07 5.22061E+05  8701.0      362.54     0.99259    
1
 ------------------------------------------------------------------------------------------------------------
 
 SOLVING FOR TRANSPORT 

 ------------------------------------------------------------------------------------------------------------------------
     1 CALLS TO SPARSE MATRIX SOLVER PACKAGE IN TRANSPORT TIME STEP       2 STRESS PERIOD      13 SPECIES  1

 TOTAL OF       1OUTER ITERATIONS
  MAXIMUM CHANGE FOR EACH ITERATION:
   MAX. CHANGE        NODE  MAX. CHANGE        NODE  MAX. CHANGE        NODE  MAX. CHANGE        NODE  MAX. CHANGE        NODE
 ------------------------------------------------------------------------------------------------------------------------------------
  -0.15571E-11,        191

  MAXIMUM CHANGE FOR CLN NODE AT EACH ITERATION:
   MAX. CHANGE    CLN-CELL  MAX. CHANGE    CLN-CELL  MAX. CHANGE    CLN-CELL  MAX. CHANGE    CLN-CELL  MAX. CHANGE    CLN-CELL
 ------------------------------------------------------------------------------------------------------------------------------------
   0.92054E-09,          2
     TRANSPORT SOLUTION COMPLETE FOR COMPONENT SPECIES NUMBER    1
     ------------------------------------------------------------
 UBUDSVU SAVING "    MASS STORAGE" ON UNIT 145 AT TIME STEP      2, STRESS PERIOD     13
 UBUDSVU SAVING "CLN MASS STORAGE" ON UNIT 145 AT TIME STEP      2, STRESS PERIOD     13
 UBUDSVU SAVING "CNST H MASS FLUX" ON UNIT 145 AT TIME STEP      2, STRESS PERIOD     13
 UBUDSVU SAVING "  WELL MASS FLUX" ON UNIT 145 AT TIME STEP      2, STRESS PERIOD     13

 TRANSPORT SOLUTION COMPLETE FOR ALL SPECIES, SORTING OUTPUT FOR CONCENTRATIONS AND MASS BALANCE
 ----------------------------------------------------------------------------------------------------
     TRANSPORT OUTPUT FOR COMPONENT SPECIES NUMBER    1
     ------------------------------------------------------------

 CONC WILL BE SAVED ON UNIT  132 AT END OF TIME STEP        2, STRESS PERIOD       13

 CLN CONC WILL BE SAVED ON UNIT  188 AT END OF TIME STEP   2, STRESS PERIOD   13
1
  VOLUMETRIC BUDGET FOR ENTIRE MODEL AT END OF TIME STEP       2 IN STRESS PERIOD      13
  ---------------------------------------------------------------------------------------

     CUMULATIVE VOLUMES      L**3       RATES FOR THIS TIME STEP      L**3/T
     ------------------                 ------------------------

           IN:                                      IN:
           ---                                      ---
        MASS STORAGE =         181.2712          MASS STORAGE =           0.5000
    CNST H MASS FLUX =           0.0000      CNST H MASS FLUX =           0.0000
      WELL MASS FLUX =           0.0000        WELL MASS FLUX =           0.0000

            TOTAL IN =         181.2712              TOTAL IN =           0.5000

          OUT:                                     OUT:
          ----                                     ----
        MASS STORAGE =           0.2827          MASS STORAGE =       1.2938E-09
    CNST H MASS FLUX =           0.0000      CNST H MASS FLUX =           0.0000
      WELL MASS FLUX =         180.9885        WELL MASS FLUX =           0.5000

           TOTAL OUT =         181.2712             TOTAL OUT =           0.5000

            IN - OUT =       1.3674E-10              IN - OUT =      -1.2938E-09

 PERCENT DISCREPANCY =           0.00     PERCENT DISCREPANCY =          -0.00






          TIME SUMMARY AT END OF TIME STEP         2 IN STRESS PERIOD        13
                    SECONDS     MINUTES      HOURS       DAYS        YEARS
                    -----------------------------------------------------------
   TIME STEP LENGTH 1.19821E+05  1997.0      33.284      1.3868     3.79690E-03
 STRESS PERIOD TIME 2.19672E+05  3661.2      61.020      2.5425     6.96099E-03
         TOTAL TIME 3.13237E+07 5.22061E+05  8701.0      362.54     0.99259    
1
 -------------------------------------------------------------------------------------
 
 SOLVING FOR HEAD 

 Outer-Iteration  Inner-Iteration  Backtracking  Number of        Incoming       Outgoing  Maximum HeadChange      Maximum Head Change
     Number           Count           Flag       Backtracks       Residual       Residual           Value              Location
        1                             0             0          0.377561E-01     0.377561E-01
        1                5                                                                       -0.771630E-01               400           GWF-node number
        1                5                                                                       -0.726086E-01                 1           CLN-node number
        2                             0             0          0.123763E-14     0.123763E-14
        2                1                                                                        0.375816E-07               190           GWF-node number
        2                1                                                                        0.114478E-06                 3           CLN-node number
     2 CALLS TO SPARSE MATRIX SOLVER PACKAGE  IN FLOW TIME STEP       3 STRESS PERIOD      13

 TOTAL OF       2OUTER ITERATIONS
  MAXIMUM CHANGE FOR EACH ITERATION:
   MAX. CHANGE        NODE  MAX. CHANGE        NODE  MAX. CHANGE        NODE  MAX. CHANGE        NODE  MAX. CHANGE        NODE
 ------------------------------------------------------------------------------------------------------------------------------------
  -0.77163E-01,        400  0.37582E-07,        190

  MAXIMUM CHANGE FOR CLN NODE AT EACH ITERATION:
   MAX. CHANGE    CLN-CELL  MAX. CHANGE    CLN-CELL  MAX. CHANGE    CLN-CELL  MAX. CHANGE    CLN-CELL  MAX. CHANGE    CLN-CELL
 ------------------------------------------------------------------------------------------------------------------------------------
  -0.72609E-01,          1  0.11448E-06,          3

 HEAD/DRAWDOWN PRINTOUT FLAG = 1     TOTAL BUDGET PRINTOUT FLAG = 1
 CELL-BY-CELL FLOW TERM FLAG = 1
 CONCENTRATION PRINTOUT FLAG = 1

 OUTPUT FLAGS FOR ALL LAYERS ARE THE SAME:
   HEAD    DRAWDOWN  HEAD  DRAWDOWN    CONC    CONC
 PRINTOUT  PRINTOUT  SAVE    SAVE    PRINTOUT  SAVE
 ---------------------------------------------------
     0         0       1       1       0       1
 UBUDSVU SAVING "         STORAGE" ON UNIT  50 AT TIME STEP      3, STRESS PERIOD     13
 UBUDSV SAVING "     CLN STORAGE" ON UNIT 144 AT TIME STEP      3, STRESS PERIOD      13
 UBUDSVU SAVING "   CONSTANT HEAD" ON UNIT  50 AT TIME STEP      3, STRESS PERIOD     13
 UBUDSVU SAVING "   FLOW JA FACE " ON UNIT  50 AT TIME STEP      3, STRESS PERIOD     13
 UBUDSVU SAVING "             CLN" ON UNIT  50 AT TIME STEP      3, STRESS PERIOD     13
 UBUDSVU SAVING "  CLN CONST HEAD" ON UNIT 144 AT TIME STEP      3, STRESS PERIOD     13
 UBUDSVU SAVING "   FLOW CLN FACE" ON UNIT 144 AT TIME STEP      3, STRESS PERIOD     13
 UBUDSVU SAVING "             GWF" ON UNIT 144 AT TIME STEP      3, STRESS PERIOD     13
 UBUDSVU SAVING "           WELLS" ON UNIT  50 AT TIME STEP      3, STRESS PERIOD     13
 UBUDSVU SAVING "           WELLS" ON UNIT 144 AT TIME STEP      3, STRESS PERIOD     13

 HEAD WILL BE SAVED ON UNIT       30 AT END OF TIME STEP        3, STRESS PERIOD       13

 DRAWDOWN WILL BE SAVED ON UNIT   31 AT END OF TIME STEP   3, STRESS PERIOD   13

 CLN HEAD WILL BE SAVED ON UNIT   77 AT END OF TIME STEP   3, STRESS PERIOD   13
1
  VOLUMETRIC BUDGET FOR ENTIRE MODEL AT END OF TIME STEP       3 IN STRESS PERIOD      13
  ---------------------------------------------------------------------------------------

     CUMULATIVE VOLUMES      L**3       RATES FOR THIS TIME STEP      L**3/T
     ------------------                 ------------------------

           IN:                                      IN:
           ---                                      ---
             STORAGE =        1821.0334               STORAGE =           5.0000
         CLN STORAGE =           0.0000           CLN STORAGE =           0.0000
       CONSTANT HEAD =           0.0000         CONSTANT HEAD =           0.0000
      CLN CONST HEAD =           0.0000        CLN CONST HEAD =           0.0000
               WELLS =           0.0000                 WELLS =           0.0000

            TOTAL IN =        1821.0334              TOTAL IN =           5.0000

          OUT:                                     OUT:
          ----                                     ----
             STORAGE =           0.0000               STORAGE =           0.0000
         CLN STORAGE =           0.0000           CLN STORAGE =           0.0000
       CONSTANT HEAD =           0.0000         CONSTANT HEAD =           0.0000
      CLN CONST HEAD =           0.0000        CLN CONST HEAD =           0.0000
               WELLS =        1821.0334                 WELLS =           5.0000

           TOTAL OUT =        1821.0334             TOTAL OUT =           5.0000

            IN - OUT =       1.7497E-05              IN - OUT =       5.1098E-08

 PERCENT DISCREPANCY =           0.00     PERCENT DISCREPANCY =           0.00






          TIME SUMMARY AT END OF TIME STEP         3 IN STRESS PERIOD        13
                    SECONDS     MINUTES      HOURS       DAYS        YEARS
                    -----------------------------------------------------------
   TIME STEP LENGTH 1.43785E+05  2396.4      39.940      1.6642     4.55628E-03
 STRESS PERIOD TIME 3.63458E+05  6057.6      100.96      4.2067     1.15173E-02
         TOTAL TIME 3.14675E+07 5.24458E+05  8741.0      364.21     0.99714    
1
 ------------------------------------------------------------------------------------------------------------
 
 SOLVING FOR TRANSPORT 

 ------------------------------------------------------------------------------------------------------------------------
     1 CALLS TO SPARSE MATRIX SOLVER PACKAGE IN TRANSPORT TIME STEP       3 STRESS PERIOD      13 SPECIES  1

 TOTAL OF       1OUTER ITERATIONS
  MAXIMUM CHANGE FOR EACH ITERATION:
   MAX. CHANGE        NODE  MAX. CHANGE        NODE  MAX. CHANGE        NODE  MAX. CHANGE        NODE  MAX. CHANGE        NODE
 ------------------------------------------------------------------------------------------------------------------------------------
   0.43209E-11,        191

  MAXIMUM CHANGE FOR CLN NODE AT EACH ITERATION:
   MAX. CHANGE    CLN-CELL  MAX. CHANGE    CLN-CELL  MAX. CHANGE    CLN-CELL  MAX. CHANGE    CLN-CELL  MAX. CHANGE    CLN-CELL
 ------------------------------------------------------------------------------------------------------------------------------------
  -0.13498E-08,          1
     TRANSPORT SOLUTION COMPLETE FOR COMPONENT SPECIES NUMBER    1
     ------------------------------------------------------------
 UBUDSVU SAVING "    MASS STORAGE" ON UNIT 145 AT TIME STEP      3, STRESS PERIOD     13
 UBUDSVU SAVING "CLN MASS STORAGE" ON UNIT 145 AT TIME STEP      3, STRESS PERIOD     13
 UBUDSVU SAVING "CNST H MASS FLUX" ON UNIT 145 AT TIME STEP      3, STRESS PERIOD     13
 UBUDSVU SAVING "  WELL MASS FLUX" ON UNIT 145 AT TIME STEP      3, STRESS PERIOD     13

 TRANSPORT SOLUTION COMPLETE FOR ALL SPECIES, SORTING OUTPUT FOR CONCENTRATIONS AND MASS BALANCE
 ----------------------------------------------------------------------------------------------------
     TRANSPORT OUTPUT FOR COMPONENT SPECIES NUMBER    1
     ------------------------------------------------------------

 CONC WILL BE SAVED ON UNIT  132 AT END OF TIME STEP        3, STRESS PERIOD       13

 CLN CONC WILL BE SAVED ON UNIT  188 AT END OF TIME STEP   3, STRESS PERIOD   13
1
  VOLUMETRIC BUDGET FOR ENTIRE MODEL AT END OF TIME STEP       3 IN STRESS PERIOD      13
  ---------------------------------------------------------------------------------------

     CUMULATIVE VOLUMES      L**3       RATES FOR THIS TIME STEP      L**3/T
     ------------------                 ------------------------

           IN:                                      IN:
           ---                                      ---
        MASS STORAGE =         182.1033          MASS STORAGE =           0.5000
    CNST H MASS FLUX =           0.0000      CNST H MASS FLUX =           0.0000
      WELL MASS FLUX =           0.0000        WELL MASS FLUX =           0.0000

            TOTAL IN =         182.1033              TOTAL IN =           0.5000

          OUT:                                     OUT:
          ----                                     ----
        MASS STORAGE =           0.2827          MASS STORAGE =           0.0000
    CNST H MASS FLUX =           0.0000      CNST H MASS FLUX =           0.0000
      WELL MASS FLUX =         181.8206        WELL MASS FLUX =           0.5000

           TOTAL OUT =         182.1033             TOTAL OUT =           0.5000

            IN - OUT =       1.3716E-10              IN - OUT =           0.0000

 PERCENT DISCREPANCY =           0.00     PERCENT DISCREPANCY =           0.00






          TIME SUMMARY AT END OF TIME STEP         3 IN STRESS PERIOD        13
                    SECONDS     MINUTES      HOURS       DAYS        YEARS
                    -----------------------------------------------------------
   TIME STEP LENGTH 1.43785E+05  2396.4      39.940      1.6642     4.55628E-03
 STRESS PERIOD TIME 3.63458E+05  6057.6      100.96      4.2067     1.15173E-02
         TOTAL TIME 3.14675E+07 5.24458E+05  8741.0      364.21     0.99714    
1
 -------------------------------------------------------------------------------------
 
 SOLVING FOR HEAD 

 Outer-Iteration  Inner-Iteration  Backtracking  Number of        Incoming       Outgoing  Maximum HeadChange      Maximum Head Change
     Number           Count           Flag       Backtracks       Residual       Residual           Value              Location
        1                             0             0          0.377207E-01     0.377207E-01
        1                5                                                                       -0.925125E-01               400           GWF-node number
        1                5                                                                       -0.870606E-01                 1           CLN-node number
        2                             0             0          0.233070E-13     0.233070E-13
        2                1                                                                        0.676334E-07               190           GWF-node number
        2                1                                                                        0.230885E-06                 2           CLN-node number
     2 CALLS TO SPARSE MATRIX SOLVER PACKAGE  IN FLOW TIME STEP       4 STRESS PERIOD      13

 TOTAL OF       2OUTER ITERATIONS
  MAXIMUM CHANGE FOR EACH ITERATION:
   MAX. CHANGE        NODE  MAX. CHANGE        NODE  MAX. CHANGE        NODE  MAX. CHANGE        NODE  MAX. CHANGE        NODE
 ------------------------------------------------------------------------------------------------------------------------------------
  -0.92513E-01,        400  0.67633E-07,        190

  MAXIMUM CHANGE FOR CLN NODE AT EACH ITERATION:
   MAX. CHANGE    CLN-CELL  MAX. CHANGE    CLN-CELL  MAX. CHANGE    CLN-CELL  MAX. CHANGE    CLN-CELL  MAX. CHANGE    CLN-CELL
 ------------------------------------------------------------------------------------------------------------------------------------
  -0.87061E-01,          1  0.23088E-06,          2

 HEAD/DRAWDOWN PRINTOUT FLAG = 1     TOTAL BUDGET PRINTOUT FLAG = 1
 CELL-BY-CELL FLOW TERM FLAG = 1
 CONCENTRATION PRINTOUT FLAG = 1

 OUTPUT FLAGS FOR ALL LAYERS ARE THE SAME:
   HEAD    DRAWDOWN  HEAD  DRAWDOWN    CONC    CONC
 PRINTOUT  PRINTOUT  SAVE    SAVE    PRINTOUT  SAVE
 ---------------------------------------------------
     0         0       1       1       0       1
 UBUDSVU SAVING "         STORAGE" ON UNIT  50 AT TIME STEP      4, STRESS PERIOD     13
 UBUDSV SAVING "     CLN STORAGE" ON UNIT 144 AT TIME STEP      4, STRESS PERIOD      13
 UBUDSVU SAVING "   CONSTANT HEAD" ON UNIT  50 AT TIME STEP      4, STRESS PERIOD     13
 UBUDSVU SAVING "   FLOW JA FACE " ON UNIT  50 AT TIME STEP      4, STRESS PERIOD     13
 UBUDSVU SAVING "             CLN" ON UNIT  50 AT TIME STEP      4, STRESS PERIOD     13
 UBUDSVU SAVING "  CLN CONST HEAD" ON UNIT 144 AT TIME STEP      4, STRESS PERIOD     13
 UBUDSVU SAVING "   FLOW CLN FACE" ON UNIT 144 AT TIME STEP      4, STRESS PERIOD     13
 UBUDSVU SAVING "             GWF" ON UNIT 144 AT TIME STEP      4, STRESS PERIOD     13
 UBUDSVU SAVING "           WELLS" ON UNIT  50 AT TIME STEP      4, STRESS PERIOD     13
 UBUDSVU SAVING "           WELLS" ON UNIT 144 AT TIME STEP      4, STRESS PERIOD     13

 HEAD WILL BE SAVED ON UNIT       30 AT END OF TIME STEP        4, STRESS PERIOD       13

 DRAWDOWN WILL BE SAVED ON UNIT   31 AT END OF TIME STEP   4, STRESS PERIOD   13

 CLN HEAD WILL BE SAVED ON UNIT   77 AT END OF TIME STEP   4, STRESS PERIOD   13
1
  VOLUMETRIC BUDGET FOR ENTIRE MODEL AT END OF TIME STEP       4 IN STRESS PERIOD      13
  ---------------------------------------------------------------------------------------

     CUMULATIVE VOLUMES      L**3       RATES FOR THIS TIME STEP      L**3/T
     ------------------                 ------------------------

           IN:                                      IN:
           ---                                      ---
             STORAGE =        1831.0185               STORAGE =           5.0000
         CLN STORAGE =           0.0000           CLN STORAGE =           0.0000
       CONSTANT HEAD =           0.0000         CONSTANT HEAD =           0.0000
      CLN CONST HEAD =           0.0000        CLN CONST HEAD =           0.0000
               WELLS =           0.0000                 WELLS =           0.0000

            TOTAL IN =        1831.0185              TOTAL IN =           5.0000

          OUT:                                     OUT:
          ----                                     ----
             STORAGE =           0.0000               STORAGE =           0.0000
         CLN STORAGE =           0.0000           CLN STORAGE =           0.0000
       CONSTANT HEAD =           0.0000         CONSTANT HEAD =           0.0000
      CLN CONST HEAD =           0.0000        CLN CONST HEAD =           0.0000
               WELLS =        1831.0184                 WELLS =           5.0000

           TOTAL OUT =        1831.0184             TOTAL OUT =           5.0000

            IN - OUT =       1.7610E-05              IN - OUT =       5.6501E-08

 PERCENT DISCREPANCY =           0.00     PERCENT DISCREPANCY =           0.00






          TIME SUMMARY AT END OF TIME STEP         4 IN STRESS PERIOD        13
                    SECONDS     MINUTES      HOURS       DAYS        YEARS
                    -----------------------------------------------------------
   TIME STEP LENGTH 1.72542E+05  2875.7      47.928      1.9970     5.46754E-03
 STRESS PERIOD TIME 5.36000E+05  8933.3      148.89      6.2037     1.69848E-02
         TOTAL TIME 3.16400E+07 5.27333E+05  8788.9      366.20      1.0026    
1
 ------------------------------------------------------------------------------------------------------------
 
 SOLVING FOR TRANSPORT 

 ------------------------------------------------------------------------------------------------------------------------
     1 CALLS TO SPARSE MATRIX SOLVER PACKAGE IN TRANSPORT TIME STEP       4 STRESS PERIOD      13 SPECIES  1

 TOTAL OF       1OUTER ITERATIONS
  MAXIMUM CHANGE FOR EACH ITERATION:
   MAX. CHANGE        NODE  MAX. CHANGE        NODE  MAX. CHANGE        NODE  MAX. CHANGE        NODE  MAX. CHANGE        NODE
 ------------------------------------------------------------------------------------------------------------------------------------
   0.14336E-10,        191

  MAXIMUM CHANGE FOR CLN NODE AT EACH ITERATION:
   MAX. CHANGE    CLN-CELL  MAX. CHANGE    CLN-CELL  MAX. CHANGE    CLN-CELL  MAX. CHANGE    CLN-CELL  MAX. CHANGE    CLN-CELL
 ------------------------------------------------------------------------------------------------------------------------------------
  -0.76138E-09,          2
     TRANSPORT SOLUTION COMPLETE FOR COMPONENT SPECIES NUMBER    1
     ------------------------------------------------------------
 UBUDSVU SAVING "    MASS STORAGE" ON UNIT 145 AT TIME STEP      4, STRESS PERIOD     13
 UBUDSVU SAVING "CLN MASS STORAGE" ON UNIT 145 AT TIME STEP      4, STRESS PERIOD     13
 UBUDSVU SAVING "CNST H MASS FLUX" ON UNIT 145 AT TIME STEP      4, STRESS PERIOD     13
 UBUDSVU SAVING "  WELL MASS FLUX" ON UNIT 145 AT TIME STEP      4, STRESS PERIOD     13

 TRANSPORT SOLUTION COMPLETE FOR ALL SPECIES, SORTING OUTPUT FOR CONCENTRATIONS AND MASS BALANCE
 ----------------------------------------------------------------------------------------------------
     TRANSPORT OUTPUT FOR COMPONENT SPECIES NUMBER    1
     ------------------------------------------------------------

 CONC WILL BE SAVED ON UNIT  132 AT END OF TIME STEP        4, STRESS PERIOD       13

 CLN CONC WILL BE SAVED ON UNIT  188 AT END OF TIME STEP   4, STRESS PERIOD   13
1
  VOLUMETRIC BUDGET FOR ENTIRE MODEL AT END OF TIME STEP       4 IN STRESS PERIOD      13
  ---------------------------------------------------------------------------------------

     CUMULATIVE VOLUMES      L**3       RATES FOR THIS TIME STEP      L**3/T
     ------------------                 ------------------------

           IN:                                      IN:
           ---                                      ---
        MASS STORAGE =         183.1018          MASS STORAGE =           0.5000
    CNST H MASS FLUX =           0.0000      CNST H MASS FLUX =           0.0000
      WELL MASS FLUX =           0.0000        WELL MASS FLUX =           0.0000

            TOTAL IN =         183.1018              TOTAL IN =           0.5000

          OUT:                                     OUT:
          ----                                     ----
        MASS STORAGE =           0.2827          MASS STORAGE =       1.3722E-10
    CNST H MASS FLUX =           0.0000      CNST H MASS FLUX =           0.0000
      WELL MASS FLUX =         182.8191        WELL MASS FLUX =           0.5000

           TOTAL OUT =         183.1018             TOTAL OUT =           0.5000

            IN - OUT =       1.3949E-10              IN - OUT =      -1.3722E-10

 PERCENT DISCREPANCY =           0.00     PERCENT DISCREPANCY =          -0.00






          TIME SUMMARY AT END OF TIME STEP         4 IN STRESS PERIOD        13
                    SECONDS     MINUTES      HOURS       DAYS        YEARS
                    -----------------------------------------------------------
   TIME STEP LENGTH 1.72542E+05  2875.7      47.928      1.9970     5.46754E-03
 STRESS PERIOD TIME 5.36000E+05  8933.3      148.89      6.2037     1.69848E-02
         TOTAL TIME 3.16400E+07 5.27333E+05  8788.9      366.20      1.0026    
1
 -------------------------------------------------------------------------------------
 
 SOLVING FOR HEAD 

 Outer-Iteration  Inner-Iteration  Backtracking  Number of        Incoming       Outgoing  Maximum HeadChange      Maximum Head Change
     Number           Count           Flag       Backtracks       Residual       Residual           Value              Location
        1                             0             0          0.376785E-01     0.376785E-01
        1                6                                                                       -0.110896                   400           GWF-node number
        1                6                                                                       -0.104372                     3           CLN-node number
        2                             0             0          0.273841E-15     0.273841E-15
        2                1                                                                       -0.157065E-07               190           GWF-node number
        2                1                                                                       -0.389935E-07                 3           CLN-node number
     2 CALLS TO SPARSE MATRIX SOLVER PACKAGE  IN FLOW TIME STEP       5 STRESS PERIOD      13

 TOTAL OF       2OUTER ITERATIONS
  MAXIMUM CHANGE FOR EACH ITERATION:
   MAX. CHANGE        NODE  MAX. CHANGE        NODE  MAX. CHANGE        NODE  MAX. CHANGE        NODE  MAX. CHANGE        NODE
 ------------------------------------------------------------------------------------------------------------------------------------
  -0.11090    ,        400 -0.15707E-07,        190

  MAXIMUM CHANGE FOR CLN NODE AT EACH ITERATION:
   MAX. CHANGE    CLN-CELL  MAX. CHANGE    CLN-CELL  MAX. CHANGE    CLN-CELL  MAX. CHANGE    CLN-CELL  MAX. CHANGE    CLN-CELL
 ------------------------------------------------------------------------------------------------------------------------------------
  -0.10437    ,          3 -0.38993E-07,          3

 HEAD/DRAWDOWN PRINTOUT FLAG = 1     TOTAL BUDGET PRINTOUT FLAG = 1
 CELL-BY-CELL FLOW TERM FLAG = 1
 CONCENTRATION PRINTOUT FLAG = 1

 OUTPUT FLAGS FOR ALL LAYERS ARE THE SAME:
   HEAD    DRAWDOWN  HEAD  DRAWDOWN    CONC    CONC
 PRINTOUT  PRINTOUT  SAVE    SAVE    PRINTOUT  SAVE
 ---------------------------------------------------
     0         0       1       1       0       1
 UBUDSVU SAVING "         STORAGE" ON UNIT  50 AT TIME STEP      5, STRESS PERIOD     13
 UBUDSV SAVING "     CLN STORAGE" ON UNIT 144 AT TIME STEP      5, STRESS PERIOD      13
 UBUDSVU SAVING "   CONSTANT HEAD" ON UNIT  50 AT TIME STEP      5, STRESS PERIOD     13
 UBUDSVU SAVING "   FLOW JA FACE " ON UNIT  50 AT TIME STEP      5, STRESS PERIOD     13
 UBUDSVU SAVING "             CLN" ON UNIT  50 AT TIME STEP      5, STRESS PERIOD     13
 UBUDSVU SAVING "  CLN CONST HEAD" ON UNIT 144 AT TIME STEP      5, STRESS PERIOD     13
 UBUDSVU SAVING "   FLOW CLN FACE" ON UNIT 144 AT TIME STEP      5, STRESS PERIOD     13
 UBUDSVU SAVING "             GWF" ON UNIT 144 AT TIME STEP      5, STRESS PERIOD     13
 UBUDSVU SAVING "           WELLS" ON UNIT  50 AT TIME STEP      5, STRESS PERIOD     13
 UBUDSVU SAVING "           WELLS" ON UNIT 144 AT TIME STEP      5, STRESS PERIOD     13

 HEAD WILL BE SAVED ON UNIT       30 AT END OF TIME STEP        5, STRESS PERIOD       13

 DRAWDOWN WILL BE SAVED ON UNIT   31 AT END OF TIME STEP   5, STRESS PERIOD   13

 CLN HEAD WILL BE SAVED ON UNIT   77 AT END OF TIME STEP   5, STRESS PERIOD   13
1
  VOLUMETRIC BUDGET FOR ENTIRE MODEL AT END OF TIME STEP       5 IN STRESS PERIOD      13
  ---------------------------------------------------------------------------------------

     CUMULATIVE VOLUMES      L**3       RATES FOR THIS TIME STEP      L**3/T
     ------------------                 ------------------------

           IN:                                      IN:
           ---                                      ---
             STORAGE =        1843.0006               STORAGE =           5.0000
         CLN STORAGE =           0.0000           CLN STORAGE =           0.0000
       CONSTANT HEAD =           0.0000         CONSTANT HEAD =           0.0000
      CLN CONST HEAD =           0.0000        CLN CONST HEAD =           0.0000
               WELLS =           0.0000                 WELLS =           0.0000

            TOTAL IN =        1843.0006              TOTAL IN =           5.0000

          OUT:                                     OUT:
          ----                                     ----
             STORAGE =           0.0000               STORAGE =           0.0000
         CLN STORAGE =           0.0000           CLN STORAGE =           0.0000
       CONSTANT HEAD =           0.0000         CONSTANT HEAD =           0.0000
      CLN CONST HEAD =           0.0000        CLN CONST HEAD =           0.0000
               WELLS =        1843.0006                 WELLS =           5.0000

           TOTAL OUT =        1843.0006             TOTAL OUT =           5.0000

            IN - OUT =       1.7770E-05              IN - OUT =       6.6836E-08

 PERCENT DISCREPANCY =           0.00     PERCENT DISCREPANCY =           0.00






          TIME SUMMARY AT END OF TIME STEP         5 IN STRESS PERIOD        13
                    SECONDS     MINUTES      HOURS       DAYS        YEARS
                    -----------------------------------------------------------
   TIME STEP LENGTH 2.07051E+05  3450.8      57.514      2.3964     6.56105E-03
 STRESS PERIOD TIME 7.43051E+05  12384.      206.40      8.6001     2.35459E-02
         TOTAL TIME 3.18470E+07 5.30784E+05  8846.4      368.60      1.0092    
1
 ------------------------------------------------------------------------------------------------------------
 
 SOLVING FOR TRANSPORT 

 ------------------------------------------------------------------------------------------------------------------------
     1 CALLS TO SPARSE MATRIX SOLVER PACKAGE IN TRANSPORT TIME STEP       5 STRESS PERIOD      13 SPECIES  1

 TOTAL OF       1OUTER ITERATIONS
  MAXIMUM CHANGE FOR EACH ITERATION:
   MAX. CHANGE        NODE  MAX. CHANGE        NODE  MAX. CHANGE        NODE  MAX. CHANGE        NODE  MAX. CHANGE        NODE
 ------------------------------------------------------------------------------------------------------------------------------------
  -0.81108E-11,        191

  MAXIMUM CHANGE FOR CLN NODE AT EACH ITERATION:
   MAX. CHANGE    CLN-CELL  MAX. CHANGE    CLN-CELL  MAX. CHANGE    CLN-CELL  MAX. CHANGE    CLN-CELL  MAX. CHANGE    CLN-CELL
 ------------------------------------------------------------------------------------------------------------------------------------
   0.15340E-08,          2
     TRANSPORT SOLUTION COMPLETE FOR COMPONENT SPECIES NUMBER    1
     ------------------------------------------------------------
 UBUDSVU SAVING "    MASS STORAGE" ON UNIT 145 AT TIME STEP      5, STRESS PERIOD     13
 UBUDSVU SAVING "CLN MASS STORAGE" ON UNIT 145 AT TIME STEP      5, STRESS PERIOD     13
 UBUDSVU SAVING "CNST H MASS FLUX" ON UNIT 145 AT TIME STEP      5, STRESS PERIOD     13
 UBUDSVU SAVING "  WELL MASS FLUX" ON UNIT 145 AT TIME STEP      5, STRESS PERIOD     13

 TRANSPORT SOLUTION COMPLETE FOR ALL SPECIES, SORTING OUTPUT FOR CONCENTRATIONS AND MASS BALANCE
 ----------------------------------------------------------------------------------------------------
     TRANSPORT OUTPUT FOR COMPONENT SPECIES NUMBER    1
     ------------------------------------------------------------

 CONC WILL BE SAVED ON UNIT  132 AT END OF TIME STEP        5, STRESS PERIOD       13

 CLN CONC WILL BE SAVED ON UNIT  188 AT END OF TIME STEP   5, STRESS PERIOD   13
1
  VOLUMETRIC BUDGET FOR ENTIRE MODEL AT END OF TIME STEP       5 IN STRESS PERIOD      13
  ---------------------------------------------------------------------------------------

     CUMULATIVE VOLUMES      L**3       RATES FOR THIS TIME STEP      L**3/T
     ------------------                 ------------------------

           IN:                                      IN:
           ---                                      ---
        MASS STORAGE =         184.3001          MASS STORAGE =           0.5000
    CNST H MASS FLUX =           0.0000      CNST H MASS FLUX =           0.0000
      WELL MASS FLUX =           0.0000        WELL MASS FLUX =           0.0000

            TOTAL IN =         184.3001              TOTAL IN =           0.5000

          OUT:                                     OUT:
          ----                                     ----
        MASS STORAGE =           0.2827          MASS STORAGE =       9.1376E-10
    CNST H MASS FLUX =           0.0000      CNST H MASS FLUX =           0.0000
      WELL MASS FLUX =         184.0173        WELL MASS FLUX =           0.5000

           TOTAL OUT =         184.3001             TOTAL OUT =           0.5000

            IN - OUT =       1.3813E-10              IN - OUT =      -9.1376E-10

 PERCENT DISCREPANCY =           0.00     PERCENT DISCREPANCY =          -0.00






          TIME SUMMARY AT END OF TIME STEP         5 IN STRESS PERIOD        13
                    SECONDS     MINUTES      HOURS       DAYS        YEARS
                    -----------------------------------------------------------
   TIME STEP LENGTH 2.07051E+05  3450.8      57.514      2.3964     6.56105E-03
 STRESS PERIOD TIME 7.43051E+05  12384.      206.40      8.6001     2.35459E-02
         TOTAL TIME 3.18470E+07 5.30784E+05  8846.4      368.60      1.0092    
1
 -------------------------------------------------------------------------------------
 
 SOLVING FOR HEAD 

 Outer-Iteration  Inner-Iteration  Backtracking  Number of        Incoming       Outgoing  Maximum HeadChange      Maximum Head Change
     Number           Count           Flag       Backtracks       Residual       Residual           Value              Location
        1                             0             0          0.376282E-01     0.376282E-01
        1                6                                                                       -0.132904                   400           GWF-node number
        1                6                                                                       -0.125103                     3           CLN-node number
        2                             0             0          0.264962E-14     0.264962E-14
        2                1                                                                        0.253360E-07               190           GWF-node number
        2                1                                                                        0.691109E-07                 3           CLN-node number
     2 CALLS TO SPARSE MATRIX SOLVER PACKAGE  IN FLOW TIME STEP       6 STRESS PERIOD      13

 TOTAL OF       2OUTER ITERATIONS
  MAXIMUM CHANGE FOR EACH ITERATION:
   MAX. CHANGE        NODE  MAX. CHANGE        NODE  MAX. CHANGE        NODE  MAX. CHANGE        NODE  MAX. CHANGE        NODE
 ------------------------------------------------------------------------------------------------------------------------------------
  -0.13290    ,        400  0.25336E-07,        190

  MAXIMUM CHANGE FOR CLN NODE AT EACH ITERATION:
   MAX. CHANGE    CLN-CELL  MAX. CHANGE    CLN-CELL  MAX. CHANGE    CLN-CELL  MAX. CHANGE    CLN-CELL  MAX. CHANGE    CLN-CELL
 ------------------------------------------------------------------------------------------------------------------------------------
  -0.12510    ,          3  0.69111E-07,          3

 HEAD/DRAWDOWN PRINTOUT FLAG = 1     TOTAL BUDGET PRINTOUT FLAG = 1
 CELL-BY-CELL FLOW TERM FLAG = 1
 CONCENTRATION PRINTOUT FLAG = 1

 OUTPUT FLAGS FOR ALL LAYERS ARE THE SAME:
   HEAD    DRAWDOWN  HEAD  DRAWDOWN    CONC    CONC
 PRINTOUT  PRINTOUT  SAVE    SAVE    PRINTOUT  SAVE
 ---------------------------------------------------
     0         0       1       1       0       1
 UBUDSVU SAVING "         STORAGE" ON UNIT  50 AT TIME STEP      6, STRESS PERIOD     13
 UBUDSV SAVING "     CLN STORAGE" ON UNIT 144 AT TIME STEP      6, STRESS PERIOD      13
 UBUDSVU SAVING "   CONSTANT HEAD" ON UNIT  50 AT TIME STEP      6, STRESS PERIOD     13
 UBUDSVU SAVING "   FLOW JA FACE " ON UNIT  50 AT TIME STEP      6, STRESS PERIOD     13
 UBUDSVU SAVING "             CLN" ON UNIT  50 AT TIME STEP      6, STRESS PERIOD     13
 UBUDSVU SAVING "  CLN CONST HEAD" ON UNIT 144 AT TIME STEP      6, STRESS PERIOD     13
 UBUDSVU SAVING "   FLOW CLN FACE" ON UNIT 144 AT TIME STEP      6, STRESS PERIOD     13
 UBUDSVU SAVING "             GWF" ON UNIT 144 AT TIME STEP      6, STRESS PERIOD     13
 UBUDSVU SAVING "           WELLS" ON UNIT  50 AT TIME STEP      6, STRESS PERIOD     13
 UBUDSVU SAVING "           WELLS" ON UNIT 144 AT TIME STEP      6, STRESS PERIOD     13

 HEAD WILL BE SAVED ON UNIT       30 AT END OF TIME STEP        6, STRESS PERIOD       13

 DRAWDOWN WILL BE SAVED ON UNIT   31 AT END OF TIME STEP   6, STRESS PERIOD   13

 CLN HEAD WILL BE SAVED ON UNIT   77 AT END OF TIME STEP   6, STRESS PERIOD   13
1
  VOLUMETRIC BUDGET FOR ENTIRE MODEL AT END OF TIME STEP       6 IN STRESS PERIOD      13
  ---------------------------------------------------------------------------------------

     CUMULATIVE VOLUMES      L**3       RATES FOR THIS TIME STEP      L**3/T
     ------------------                 ------------------------

           IN:                                      IN:
           ---                                      ---
             STORAGE =        1857.3791               STORAGE =           5.0000
         CLN STORAGE =           0.0000           CLN STORAGE =           0.0000
       CONSTANT HEAD =           0.0000         CONSTANT HEAD =           0.0000
      CLN CONST HEAD =           0.0000        CLN CONST HEAD =           0.0000
               WELLS =           0.0000                 WELLS =           0.0000

            TOTAL IN =        1857.3791              TOTAL IN =           5.0000

          OUT:                                     OUT:
          ----                                     ----
             STORAGE =           0.0000               STORAGE =           0.0000
         CLN STORAGE =           0.0000           CLN STORAGE =           0.0000
       CONSTANT HEAD =           0.0000         CONSTANT HEAD =           0.0000
      CLN CONST HEAD =           0.0000        CLN CONST HEAD =           0.0000
               WELLS =        1857.3791                 WELLS =           5.0000

           TOTAL OUT =        1857.3791             TOTAL OUT =           5.0000

            IN - OUT =       1.8037E-05              IN - OUT =       9.2873E-08

 PERCENT DISCREPANCY =           0.00     PERCENT DISCREPANCY =           0.00






          TIME SUMMARY AT END OF TIME STEP         6 IN STRESS PERIOD        13
                    SECONDS     MINUTES      HOURS       DAYS        YEARS
                    -----------------------------------------------------------
   TIME STEP LENGTH 2.48461E+05  4141.0      69.017      2.8757     7.87326E-03
 STRESS PERIOD TIME 9.91512E+05  16525.      275.42      11.476     3.14191E-02
         TOTAL TIME 3.20955E+07 5.34925E+05  8915.4      371.48      1.0170    
1
 ------------------------------------------------------------------------------------------------------------
 
 SOLVING FOR TRANSPORT 

 ------------------------------------------------------------------------------------------------------------------------
     1 CALLS TO SPARSE MATRIX SOLVER PACKAGE IN TRANSPORT TIME STEP       6 STRESS PERIOD      13 SPECIES  1

 TOTAL OF       1OUTER ITERATIONS
  MAXIMUM CHANGE FOR EACH ITERATION:
   MAX. CHANGE        NODE  MAX. CHANGE        NODE  MAX. CHANGE        NODE  MAX. CHANGE        NODE  MAX. CHANGE        NODE
 ------------------------------------------------------------------------------------------------------------------------------------
   0.28409E-11,        191

  MAXIMUM CHANGE FOR CLN NODE AT EACH ITERATION:
   MAX. CHANGE    CLN-CELL  MAX. CHANGE    CLN-CELL  MAX. CHANGE    CLN-CELL  MAX. CHANGE    CLN-CELL  MAX. CHANGE    CLN-CELL
 ------------------------------------------------------------------------------------------------------------------------------------
  -0.77217E-09,          2
     TRANSPORT SOLUTION COMPLETE FOR COMPONENT SPECIES NUMBER    1
     ------------------------------------------------------------
 UBUDSVU SAVING "    MASS STORAGE" ON UNIT 145 AT TIME STEP      6, STRESS PERIOD     13
 UBUDSVU SAVING "CLN MASS STORAGE" ON UNIT 145 AT TIME STEP      6, STRESS PERIOD     13
 UBUDSVU SAVING "CNST H MASS FLUX" ON UNIT 145 AT TIME STEP      6, STRESS PERIOD     13
 UBUDSVU SAVING "  WELL MASS FLUX" ON UNIT 145 AT TIME STEP      6, STRESS PERIOD     13

 TRANSPORT SOLUTION COMPLETE FOR ALL SPECIES, SORTING OUTPUT FOR CONCENTRATIONS AND MASS BALANCE
 ----------------------------------------------------------------------------------------------------
     TRANSPORT OUTPUT FOR COMPONENT SPECIES NUMBER    1
     ------------------------------------------------------------

 CONC WILL BE SAVED ON UNIT  132 AT END OF TIME STEP        6, STRESS PERIOD       13

 CLN CONC WILL BE SAVED ON UNIT  188 AT END OF TIME STEP   6, STRESS PERIOD   13
1
  VOLUMETRIC BUDGET FOR ENTIRE MODEL AT END OF TIME STEP       6 IN STRESS PERIOD      13
  ---------------------------------------------------------------------------------------

     CUMULATIVE VOLUMES      L**3       RATES FOR THIS TIME STEP      L**3/T
     ------------------                 ------------------------

           IN:                                      IN:
           ---                                      ---
        MASS STORAGE =         185.7379          MASS STORAGE =           0.5000
    CNST H MASS FLUX =           0.0000      CNST H MASS FLUX =           0.0000
      WELL MASS FLUX =           0.0000        WELL MASS FLUX =           0.0000

            TOTAL IN =         185.7379              TOTAL IN =           0.5000

          OUT:                                     OUT:
          ----                                     ----
        MASS STORAGE =           0.2827          MASS STORAGE =       4.1873E-10
    CNST H MASS FLUX =           0.0000      CNST H MASS FLUX =           0.0000
      WELL MASS FLUX =         185.4552        WELL MASS FLUX =           0.5000

           TOTAL OUT =         185.7379             TOTAL OUT =           0.5000

            IN - OUT =       1.3890E-10              IN - OUT =      -4.1873E-10

 PERCENT DISCREPANCY =           0.00     PERCENT DISCREPANCY =          -0.00






          TIME SUMMARY AT END OF TIME STEP         6 IN STRESS PERIOD        13
                    SECONDS     MINUTES      HOURS       DAYS        YEARS
                    -----------------------------------------------------------
   TIME STEP LENGTH 2.48461E+05  4141.0      69.017      2.8757     7.87326E-03
 STRESS PERIOD TIME 9.91512E+05  16525.      275.42      11.476     3.14191E-02
         TOTAL TIME 3.20955E+07 5.34925E+05  8915.4      371.48      1.0170    
1
 -------------------------------------------------------------------------------------
 
 SOLVING FOR HEAD 

 Outer-Iteration  Inner-Iteration  Backtracking  Number of        Incoming       Outgoing  Maximum HeadChange      Maximum Head Change
     Number           Count           Flag       Backtracks       Residual       Residual           Value              Location
        1                             0             0          0.375682E-01     0.375682E-01
        1                6                                                                       -0.159239                   400           GWF-node number
        1                6                                                                       -0.149917                     1           CLN-node number
        2                             0             0          0.199067E-14     0.199067E-14
        2                1                                                                        0.500387E-07               401           GWF-node number
        2                1                                                                       -0.325935E-07                 3           CLN-node number
     2 CALLS TO SPARSE MATRIX SOLVER PACKAGE  IN FLOW TIME STEP       7 STRESS PERIOD      13

 TOTAL OF       2OUTER ITERATIONS
  MAXIMUM CHANGE FOR EACH ITERATION:
   MAX. CHANGE        NODE  MAX. CHANGE        NODE  MAX. CHANGE        NODE  MAX. CHANGE        NODE  MAX. CHANGE        NODE
 ------------------------------------------------------------------------------------------------------------------------------------
  -0.15924    ,        400  0.50039E-07,        401

  MAXIMUM CHANGE FOR CLN NODE AT EACH ITERATION:
   MAX. CHANGE    CLN-CELL  MAX. CHANGE    CLN-CELL  MAX. CHANGE    CLN-CELL  MAX. CHANGE    CLN-CELL  MAX. CHANGE    CLN-CELL
 ------------------------------------------------------------------------------------------------------------------------------------
  -0.14992    ,          1 -0.32594E-07,          3

 HEAD/DRAWDOWN PRINTOUT FLAG = 1     TOTAL BUDGET PRINTOUT FLAG = 1
 CELL-BY-CELL FLOW TERM FLAG = 1
 CONCENTRATION PRINTOUT FLAG = 1

 OUTPUT FLAGS FOR ALL LAYERS ARE THE SAME:
   HEAD    DRAWDOWN  HEAD  DRAWDOWN    CONC    CONC
 PRINTOUT  PRINTOUT  SAVE    SAVE    PRINTOUT  SAVE
 ---------------------------------------------------
     0         0       1       1       0       1
 UBUDSVU SAVING "         STORAGE" ON UNIT  50 AT TIME STEP      7, STRESS PERIOD     13
 UBUDSV SAVING "     CLN STORAGE" ON UNIT 144 AT TIME STEP      7, STRESS PERIOD      13
 UBUDSVU SAVING "   CONSTANT HEAD" ON UNIT  50 AT TIME STEP      7, STRESS PERIOD     13
 UBUDSVU SAVING "   FLOW JA FACE " ON UNIT  50 AT TIME STEP      7, STRESS PERIOD     13
 UBUDSVU SAVING "             CLN" ON UNIT  50 AT TIME STEP      7, STRESS PERIOD     13
 UBUDSVU SAVING "  CLN CONST HEAD" ON UNIT 144 AT TIME STEP      7, STRESS PERIOD     13
 UBUDSVU SAVING "   FLOW CLN FACE" ON UNIT 144 AT TIME STEP      7, STRESS PERIOD     13
 UBUDSVU SAVING "             GWF" ON UNIT 144 AT TIME STEP      7, STRESS PERIOD     13
 UBUDSVU SAVING "           WELLS" ON UNIT  50 AT TIME STEP      7, STRESS PERIOD     13
 UBUDSVU SAVING "           WELLS" ON UNIT 144 AT TIME STEP      7, STRESS PERIOD     13

 HEAD WILL BE SAVED ON UNIT       30 AT END OF TIME STEP        7, STRESS PERIOD       13

 DRAWDOWN WILL BE SAVED ON UNIT   31 AT END OF TIME STEP   7, STRESS PERIOD   13

 CLN HEAD WILL BE SAVED ON UNIT   77 AT END OF TIME STEP   7, STRESS PERIOD   13
1
  VOLUMETRIC BUDGET FOR ENTIRE MODEL AT END OF TIME STEP       7 IN STRESS PERIOD      13
  ---------------------------------------------------------------------------------------

     CUMULATIVE VOLUMES      L**3       RATES FOR THIS TIME STEP      L**3/T
     ------------------                 ------------------------

           IN:                                      IN:
           ---                                      ---
             STORAGE =        1874.6334               STORAGE =           5.0000
         CLN STORAGE =           0.0000           CLN STORAGE =           0.0000
       CONSTANT HEAD =           0.0000         CONSTANT HEAD =           0.0000
      CLN CONST HEAD =           0.0000        CLN CONST HEAD =           0.0000
               WELLS =           0.0000                 WELLS =           0.0000

            TOTAL IN =        1874.6334              TOTAL IN =           5.0000

          OUT:                                     OUT:
          ----                                     ----
             STORAGE =           0.0000               STORAGE =           0.0000
         CLN STORAGE =           0.0000           CLN STORAGE =           0.0000
       CONSTANT HEAD =           0.0000         CONSTANT HEAD =           0.0000
      CLN CONST HEAD =           0.0000        CLN CONST HEAD =           0.0000
               WELLS =        1874.6334                 WELLS =           5.0000

           TOTAL OUT =        1874.6334             TOTAL OUT =           5.0000

            IN - OUT =       1.8125E-05              IN - OUT =       2.5446E-08

 PERCENT DISCREPANCY =           0.00     PERCENT DISCREPANCY =           0.00






          TIME SUMMARY AT END OF TIME STEP         7 IN STRESS PERIOD        13
                    SECONDS     MINUTES      HOURS       DAYS        YEARS
                    -----------------------------------------------------------
   TIME STEP LENGTH 2.98153E+05  4969.2      82.820      3.4509     9.44791E-03
 STRESS PERIOD TIME 1.28967E+06  21494.      358.24      14.927     4.08670E-02
         TOTAL TIME 3.23937E+07 5.39894E+05  8998.2      374.93      1.0265    
1
 ------------------------------------------------------------------------------------------------------------
 
 SOLVING FOR TRANSPORT 

 ------------------------------------------------------------------------------------------------------------------------
     1 CALLS TO SPARSE MATRIX SOLVER PACKAGE IN TRANSPORT TIME STEP       7 STRESS PERIOD      13 SPECIES  1

 TOTAL OF       1OUTER ITERATIONS
  MAXIMUM CHANGE FOR EACH ITERATION:
   MAX. CHANGE        NODE  MAX. CHANGE        NODE  MAX. CHANGE        NODE  MAX. CHANGE        NODE  MAX. CHANGE        NODE
 ------------------------------------------------------------------------------------------------------------------------------------
  -0.10966E-10,        191

  MAXIMUM CHANGE FOR CLN NODE AT EACH ITERATION:
   MAX. CHANGE    CLN-CELL  MAX. CHANGE    CLN-CELL  MAX. CHANGE    CLN-CELL  MAX. CHANGE    CLN-CELL  MAX. CHANGE    CLN-CELL
 ------------------------------------------------------------------------------------------------------------------------------------
  -0.13403E-08,          2
     TRANSPORT SOLUTION COMPLETE FOR COMPONENT SPECIES NUMBER    1
     ------------------------------------------------------------
 UBUDSVU SAVING "    MASS STORAGE" ON UNIT 145 AT TIME STEP      7, STRESS PERIOD     13
 UBUDSVU SAVING "CLN MASS STORAGE" ON UNIT 145 AT TIME STEP      7, STRESS PERIOD     13
 UBUDSVU SAVING "CNST H MASS FLUX" ON UNIT 145 AT TIME STEP      7, STRESS PERIOD     13
 UBUDSVU SAVING "  WELL MASS FLUX" ON UNIT 145 AT TIME STEP      7, STRESS PERIOD     13

 TRANSPORT SOLUTION COMPLETE FOR ALL SPECIES, SORTING OUTPUT FOR CONCENTRATIONS AND MASS BALANCE
 ----------------------------------------------------------------------------------------------------
     TRANSPORT OUTPUT FOR COMPONENT SPECIES NUMBER    1
     ------------------------------------------------------------

 CONC WILL BE SAVED ON UNIT  132 AT END OF TIME STEP        7, STRESS PERIOD       13

 CLN CONC WILL BE SAVED ON UNIT  188 AT END OF TIME STEP   7, STRESS PERIOD   13
1
  VOLUMETRIC BUDGET FOR ENTIRE MODEL AT END OF TIME STEP       7 IN STRESS PERIOD      13
  ---------------------------------------------------------------------------------------

     CUMULATIVE VOLUMES      L**3       RATES FOR THIS TIME STEP      L**3/T
     ------------------                 ------------------------

           IN:                                      IN:
           ---                                      ---
        MASS STORAGE =         187.4633          MASS STORAGE =           0.5000
    CNST H MASS FLUX =           0.0000      CNST H MASS FLUX =           0.0000
      WELL MASS FLUX =           0.0000        WELL MASS FLUX =           0.0000

            TOTAL IN =         187.4633              TOTAL IN =           0.5000

          OUT:                                     OUT:
          ----                                     ----
        MASS STORAGE =           0.2827          MASS STORAGE =           0.0000
    CNST H MASS FLUX =           0.0000      CNST H MASS FLUX =           0.0000
      WELL MASS FLUX =         187.1806        WELL MASS FLUX =           0.5000

           TOTAL OUT =         187.4633             TOTAL OUT =           0.5000

            IN - OUT =       1.3799E-10              IN - OUT =           0.0000

 PERCENT DISCREPANCY =           0.00     PERCENT DISCREPANCY =           0.00






          TIME SUMMARY AT END OF TIME STEP         7 IN STRESS PERIOD        13
                    SECONDS     MINUTES      HOURS       DAYS        YEARS
                    -----------------------------------------------------------
   TIME STEP LENGTH 2.98153E+05  4969.2      82.820      3.4509     9.44791E-03
 STRESS PERIOD TIME 1.28967E+06  21494.      358.24      14.927     4.08670E-02
         TOTAL TIME 3.23937E+07 5.39894E+05  8998.2      374.93      1.0265    
1
 -------------------------------------------------------------------------------------
 
 SOLVING FOR HEAD 

 Outer-Iteration  Inner-Iteration  Backtracking  Number of        Incoming       Outgoing  Maximum HeadChange      Maximum Head Change
     Number           Count           Flag       Backtracks       Residual       Residual           Value              Location
        1                             0             0          0.374969E-01     0.374969E-01
        1                6                                                                       -0.190736                   400           GWF-node number
        1                6                                                                       -0.179607                     3           CLN-node number
        2                             0             0          0.118486E-13     0.118486E-13
        2                1                                                                        0.146875E-06               417           GWF-node number
        2                1                                                                        0.167663E-06                 3           CLN-node number
     2 CALLS TO SPARSE MATRIX SOLVER PACKAGE  IN FLOW TIME STEP       8 STRESS PERIOD      13

 TOTAL OF       2OUTER ITERATIONS
  MAXIMUM CHANGE FOR EACH ITERATION:
   MAX. CHANGE        NODE  MAX. CHANGE        NODE  MAX. CHANGE        NODE  MAX. CHANGE        NODE  MAX. CHANGE        NODE
 ------------------------------------------------------------------------------------------------------------------------------------
  -0.19074    ,        400  0.14687E-06,        417

  MAXIMUM CHANGE FOR CLN NODE AT EACH ITERATION:
   MAX. CHANGE    CLN-CELL  MAX. CHANGE    CLN-CELL  MAX. CHANGE    CLN-CELL  MAX. CHANGE    CLN-CELL  MAX. CHANGE    CLN-CELL
 ------------------------------------------------------------------------------------------------------------------------------------
  -0.17961    ,          3  0.16766E-06,          3

 HEAD/DRAWDOWN PRINTOUT FLAG = 1     TOTAL BUDGET PRINTOUT FLAG = 1
 CELL-BY-CELL FLOW TERM FLAG = 1
 CONCENTRATION PRINTOUT FLAG = 1

 OUTPUT FLAGS FOR ALL LAYERS ARE THE SAME:
   HEAD    DRAWDOWN  HEAD  DRAWDOWN    CONC    CONC
 PRINTOUT  PRINTOUT  SAVE    SAVE    PRINTOUT  SAVE
 ---------------------------------------------------
     0         0       1       1       0       1
 UBUDSVU SAVING "         STORAGE" ON UNIT  50 AT TIME STEP      8, STRESS PERIOD     13
 UBUDSV SAVING "     CLN STORAGE" ON UNIT 144 AT TIME STEP      8, STRESS PERIOD      13
 UBUDSVU SAVING "   CONSTANT HEAD" ON UNIT  50 AT TIME STEP      8, STRESS PERIOD     13
 UBUDSVU SAVING "   FLOW JA FACE " ON UNIT  50 AT TIME STEP      8, STRESS PERIOD     13
 UBUDSVU SAVING "             CLN" ON UNIT  50 AT TIME STEP      8, STRESS PERIOD     13
 UBUDSVU SAVING "  CLN CONST HEAD" ON UNIT 144 AT TIME STEP      8, STRESS PERIOD     13
 UBUDSVU SAVING "   FLOW CLN FACE" ON UNIT 144 AT TIME STEP      8, STRESS PERIOD     13
 UBUDSVU SAVING "             GWF" ON UNIT 144 AT TIME STEP      8, STRESS PERIOD     13
 UBUDSVU SAVING "           WELLS" ON UNIT  50 AT TIME STEP      8, STRESS PERIOD     13
 UBUDSVU SAVING "           WELLS" ON UNIT 144 AT TIME STEP      8, STRESS PERIOD     13

 HEAD WILL BE SAVED ON UNIT       30 AT END OF TIME STEP        8, STRESS PERIOD       13

 DRAWDOWN WILL BE SAVED ON UNIT   31 AT END OF TIME STEP   8, STRESS PERIOD   13

 CLN HEAD WILL BE SAVED ON UNIT   77 AT END OF TIME STEP   8, STRESS PERIOD   13
1
  VOLUMETRIC BUDGET FOR ENTIRE MODEL AT END OF TIME STEP       8 IN STRESS PERIOD      13
  ---------------------------------------------------------------------------------------

     CUMULATIVE VOLUMES      L**3       RATES FOR THIS TIME STEP      L**3/T
     ------------------                 ------------------------

           IN:                                      IN:
           ---                                      ---
             STORAGE =        1895.3385               STORAGE =           5.0000
         CLN STORAGE =           0.0000           CLN STORAGE =           0.0000
       CONSTANT HEAD =           0.0000         CONSTANT HEAD =           0.0000
      CLN CONST HEAD =           0.0000        CLN CONST HEAD =           0.0000
               WELLS =           0.0000                 WELLS =           0.0000

            TOTAL IN =        1895.3385              TOTAL IN =           5.0000

          OUT:                                     OUT:
          ----                                     ----
             STORAGE =           0.0000               STORAGE =           0.0000
         CLN STORAGE =           0.0000           CLN STORAGE =           0.0000
       CONSTANT HEAD =           0.0000         CONSTANT HEAD =           0.0000
      CLN CONST HEAD =           0.0000        CLN CONST HEAD =           0.0000
               WELLS =        1895.3385                 WELLS =           5.0000

           TOTAL OUT =        1895.3385             TOTAL OUT =           5.0000

            IN - OUT =       1.8353E-05              IN - OUT =       5.5198E-08

 PERCENT DISCREPANCY =           0.00     PERCENT DISCREPANCY =           0.00






          TIME SUMMARY AT END OF TIME STEP         8 IN STRESS PERIOD        13
                    SECONDS     MINUTES      HOURS       DAYS        YEARS
                    -----------------------------------------------------------
   TIME STEP LENGTH 3.57784E+05  5963.1      99.384      4.1410     1.13375E-02
 STRESS PERIOD TIME 1.64745E+06  27457.      457.62      19.068     5.22045E-02
         TOTAL TIME 3.27514E+07 5.45857E+05  9097.6      379.07      1.0378    
1
 ------------------------------------------------------------------------------------------------------------
 
 SOLVING FOR TRANSPORT 

 ------------------------------------------------------------------------------------------------------------------------
     1 CALLS TO SPARSE MATRIX SOLVER PACKAGE IN TRANSPORT TIME STEP       8 STRESS PERIOD      13 SPECIES  1

 TOTAL OF       1OUTER ITERATIONS
  MAXIMUM CHANGE FOR EACH ITERATION:
   MAX. CHANGE        NODE  MAX. CHANGE        NODE  MAX. CHANGE        NODE  MAX. CHANGE        NODE  MAX. CHANGE        NODE
 ------------------------------------------------------------------------------------------------------------------------------------
   0.20924E-10,        191

  MAXIMUM CHANGE FOR CLN NODE AT EACH ITERATION:
   MAX. CHANGE    CLN-CELL  MAX. CHANGE    CLN-CELL  MAX. CHANGE    CLN-CELL  MAX. CHANGE    CLN-CELL  MAX. CHANGE    CLN-CELL
 ------------------------------------------------------------------------------------------------------------------------------------
   0.10391E-08,          2
     TRANSPORT SOLUTION COMPLETE FOR COMPONENT SPECIES NUMBER    1
     ------------------------------------------------------------
 UBUDSVU SAVING "    MASS STORAGE" ON UNIT 145 AT TIME STEP      8, STRESS PERIOD     13
 UBUDSVU SAVING "CLN MASS STORAGE" ON UNIT 145 AT TIME STEP      8, STRESS PERIOD     13
 UBUDSVU SAVING "CNST H MASS FLUX" ON UNIT 145 AT TIME STEP      8, STRESS PERIOD     13
 UBUDSVU SAVING "  WELL MASS FLUX" ON UNIT 145 AT TIME STEP      8, STRESS PERIOD     13

 TRANSPORT SOLUTION COMPLETE FOR ALL SPECIES, SORTING OUTPUT FOR CONCENTRATIONS AND MASS BALANCE
 ----------------------------------------------------------------------------------------------------
     TRANSPORT OUTPUT FOR COMPONENT SPECIES NUMBER    1
     ------------------------------------------------------------

 CONC WILL BE SAVED ON UNIT  132 AT END OF TIME STEP        8, STRESS PERIOD       13

 CLN CONC WILL BE SAVED ON UNIT  188 AT END OF TIME STEP   8, STRESS PERIOD   13
1
  VOLUMETRIC BUDGET FOR ENTIRE MODEL AT END OF TIME STEP       8 IN STRESS PERIOD      13
  ---------------------------------------------------------------------------------------

     CUMULATIVE VOLUMES      L**3       RATES FOR THIS TIME STEP      L**3/T
     ------------------                 ------------------------

           IN:                                      IN:
           ---                                      ---
        MASS STORAGE =         189.5339          MASS STORAGE =           0.5000
    CNST H MASS FLUX =           0.0000      CNST H MASS FLUX =           0.0000
      WELL MASS FLUX =           0.0000        WELL MASS FLUX =           0.0000

            TOTAL IN =         189.5339              TOTAL IN =           0.5000

          OUT:                                     OUT:
          ----                                     ----
        MASS STORAGE =           0.2827          MASS STORAGE =       4.1197E-11
    CNST H MASS FLUX =           0.0000      CNST H MASS FLUX =           0.0000
      WELL MASS FLUX =         189.2511        WELL MASS FLUX =           0.5000

           TOTAL OUT =         189.5339             TOTAL OUT =           0.5000

            IN - OUT =       1.5174E-10              IN - OUT =      -4.1197E-11

 PERCENT DISCREPANCY =           0.00     PERCENT DISCREPANCY =          -0.00






          TIME SUMMARY AT END OF TIME STEP         8 IN STRESS PERIOD        13
                    SECONDS     MINUTES      HOURS       DAYS        YEARS
                    -----------------------------------------------------------
   TIME STEP LENGTH 3.57784E+05  5963.1      99.384      4.1410     1.13375E-02
 STRESS PERIOD TIME 1.64745E+06  27457.      457.62      19.068     5.22045E-02
         TOTAL TIME 3.27514E+07 5.45857E+05  9097.6      379.07      1.0378    
1
 -------------------------------------------------------------------------------------
 
 SOLVING FOR HEAD 

 Outer-Iteration  Inner-Iteration  Backtracking  Number of        Incoming       Outgoing  Maximum HeadChange      Maximum Head Change
     Number           Count           Flag       Backtracks       Residual       Residual           Value              Location
        1                             0             0          0.374123E-01     0.374123E-01
        1                6                                                                       -0.228380                   400           GWF-node number
        1                6                                                                       -0.215107                     1           CLN-node number
        2                             0             0          0.549608E-13     0.549608E-13
        2                1                                                                        0.383607E-06               417           GWF-node number
        2                1                                                                        0.453317E-06                 3           CLN-node number
     2 CALLS TO SPARSE MATRIX SOLVER PACKAGE  IN FLOW TIME STEP       9 STRESS PERIOD      13

 TOTAL OF       2OUTER ITERATIONS
  MAXIMUM CHANGE FOR EACH ITERATION:
   MAX. CHANGE        NODE  MAX. CHANGE        NODE  MAX. CHANGE        NODE  MAX. CHANGE        NODE  MAX. CHANGE        NODE
 ------------------------------------------------------------------------------------------------------------------------------------
  -0.22838    ,        400  0.38361E-06,        417

  MAXIMUM CHANGE FOR CLN NODE AT EACH ITERATION:
   MAX. CHANGE    CLN-CELL  MAX. CHANGE    CLN-CELL  MAX. CHANGE    CLN-CELL  MAX. CHANGE    CLN-CELL  MAX. CHANGE    CLN-CELL
 ------------------------------------------------------------------------------------------------------------------------------------
  -0.21511    ,          1  0.45332E-06,          3

 HEAD/DRAWDOWN PRINTOUT FLAG = 1     TOTAL BUDGET PRINTOUT FLAG = 1
 CELL-BY-CELL FLOW TERM FLAG = 1
 CONCENTRATION PRINTOUT FLAG = 1

 OUTPUT FLAGS FOR ALL LAYERS ARE THE SAME:
   HEAD    DRAWDOWN  HEAD  DRAWDOWN    CONC    CONC
 PRINTOUT  PRINTOUT  SAVE    SAVE    PRINTOUT  SAVE
 ---------------------------------------------------
     0         0       1       1       0       1
 UBUDSVU SAVING "         STORAGE" ON UNIT  50 AT TIME STEP      9, STRESS PERIOD     13
 UBUDSV SAVING "     CLN STORAGE" ON UNIT 144 AT TIME STEP      9, STRESS PERIOD      13
 UBUDSVU SAVING "   CONSTANT HEAD" ON UNIT  50 AT TIME STEP      9, STRESS PERIOD     13
 UBUDSVU SAVING "   FLOW JA FACE " ON UNIT  50 AT TIME STEP      9, STRESS PERIOD     13
 UBUDSVU SAVING "             CLN" ON UNIT  50 AT TIME STEP      9, STRESS PERIOD     13
 UBUDSVU SAVING "  CLN CONST HEAD" ON UNIT 144 AT TIME STEP      9, STRESS PERIOD     13
 UBUDSVU SAVING "   FLOW CLN FACE" ON UNIT 144 AT TIME STEP      9, STRESS PERIOD     13
 UBUDSVU SAVING "             GWF" ON UNIT 144 AT TIME STEP      9, STRESS PERIOD     13
 UBUDSVU SAVING "           WELLS" ON UNIT  50 AT TIME STEP      9, STRESS PERIOD     13
 UBUDSVU SAVING "           WELLS" ON UNIT 144 AT TIME STEP      9, STRESS PERIOD     13

 HEAD WILL BE SAVED ON UNIT       30 AT END OF TIME STEP        9, STRESS PERIOD       13

 DRAWDOWN WILL BE SAVED ON UNIT   31 AT END OF TIME STEP   9, STRESS PERIOD   13

 CLN HEAD WILL BE SAVED ON UNIT   77 AT END OF TIME STEP   9, STRESS PERIOD   13
1
  VOLUMETRIC BUDGET FOR ENTIRE MODEL AT END OF TIME STEP       9 IN STRESS PERIOD      13
  ---------------------------------------------------------------------------------------

     CUMULATIVE VOLUMES      L**3       RATES FOR THIS TIME STEP      L**3/T
     ------------------                 ------------------------

           IN:                                      IN:
           ---                                      ---
             STORAGE =        1920.1846               STORAGE =           5.0000
         CLN STORAGE =           0.0000           CLN STORAGE =           0.0000
       CONSTANT HEAD =           0.0000         CONSTANT HEAD =           0.0000
      CLN CONST HEAD =           0.0000        CLN CONST HEAD =           0.0000
               WELLS =           0.0000                 WELLS =           0.0000

            TOTAL IN =        1920.1846              TOTAL IN =           5.0000

          OUT:                                     OUT:
          ----                                     ----
             STORAGE =           0.0000               STORAGE =           0.0000
         CLN STORAGE =           0.0000           CLN STORAGE =           0.0000
       CONSTANT HEAD =           0.0000         CONSTANT HEAD =           0.0000
      CLN CONST HEAD =           0.0000        CLN CONST HEAD =           0.0000
               WELLS =        1920.1846                 WELLS =           5.0000

           TOTAL OUT =        1920.1846             TOTAL OUT =           5.0000

            IN - OUT =       1.8663E-05              IN - OUT =       6.2281E-08

 PERCENT DISCREPANCY =           0.00     PERCENT DISCREPANCY =           0.00






          TIME SUMMARY AT END OF TIME STEP         9 IN STRESS PERIOD        13
                    SECONDS     MINUTES      HOURS       DAYS        YEARS
                    -----------------------------------------------------------
   TIME STEP LENGTH 4.29341E+05  7155.7      119.26      4.9692     1.36050E-02
 STRESS PERIOD TIME 2.07679E+06  34613.      576.89      24.037     6.58095E-02
         TOTAL TIME 3.31808E+07 5.53013E+05  9216.9      384.04      1.0514    
1
 ------------------------------------------------------------------------------------------------------------
 
 SOLVING FOR TRANSPORT 

 ------------------------------------------------------------------------------------------------------------------------
     1 CALLS TO SPARSE MATRIX SOLVER PACKAGE IN TRANSPORT TIME STEP       9 STRESS PERIOD      13 SPECIES  1

 TOTAL OF       1OUTER ITERATIONS
  MAXIMUM CHANGE FOR EACH ITERATION:
   MAX. CHANGE        NODE  MAX. CHANGE        NODE  MAX. CHANGE        NODE  MAX. CHANGE        NODE  MAX. CHANGE        NODE
 ------------------------------------------------------------------------------------------------------------------------------------
   0.83001E-10,        191

  MAXIMUM CHANGE FOR CLN NODE AT EACH ITERATION:
   MAX. CHANGE    CLN-CELL  MAX. CHANGE    CLN-CELL  MAX. CHANGE    CLN-CELL  MAX. CHANGE    CLN-CELL  MAX. CHANGE    CLN-CELL
 ------------------------------------------------------------------------------------------------------------------------------------
  -0.10611E-08,          3
     TRANSPORT SOLUTION COMPLETE FOR COMPONENT SPECIES NUMBER    1
     ------------------------------------------------------------
 UBUDSVU SAVING "    MASS STORAGE" ON UNIT 145 AT TIME STEP      9, STRESS PERIOD     13
 UBUDSVU SAVING "CLN MASS STORAGE" ON UNIT 145 AT TIME STEP      9, STRESS PERIOD     13
 UBUDSVU SAVING "CNST H MASS FLUX" ON UNIT 145 AT TIME STEP      9, STRESS PERIOD     13
 UBUDSVU SAVING "  WELL MASS FLUX" ON UNIT 145 AT TIME STEP      9, STRESS PERIOD     13

 TRANSPORT SOLUTION COMPLETE FOR ALL SPECIES, SORTING OUTPUT FOR CONCENTRATIONS AND MASS BALANCE
 ----------------------------------------------------------------------------------------------------
     TRANSPORT OUTPUT FOR COMPONENT SPECIES NUMBER    1
     ------------------------------------------------------------

 CONC WILL BE SAVED ON UNIT  132 AT END OF TIME STEP        9, STRESS PERIOD       13

 CLN CONC WILL BE SAVED ON UNIT  188 AT END OF TIME STEP   9, STRESS PERIOD   13
1
  VOLUMETRIC BUDGET FOR ENTIRE MODEL AT END OF TIME STEP       9 IN STRESS PERIOD      13
  ---------------------------------------------------------------------------------------

     CUMULATIVE VOLUMES      L**3       RATES FOR THIS TIME STEP      L**3/T
     ------------------                 ------------------------

           IN:                                      IN:
           ---                                      ---
        MASS STORAGE =         192.0185          MASS STORAGE =           0.5000
    CNST H MASS FLUX =           0.0000      CNST H MASS FLUX =           0.0000
      WELL MASS FLUX =           0.0000        WELL MASS FLUX =           0.0000

            TOTAL IN =         192.0185              TOTAL IN =           0.5000

          OUT:                                     OUT:
          ----                                     ----
        MASS STORAGE =           0.2827          MASS STORAGE =           0.0000
    CNST H MASS FLUX =           0.0000      CNST H MASS FLUX =           0.0000
      WELL MASS FLUX =         191.7357        WELL MASS FLUX =           0.5000

           TOTAL OUT =         192.0185             TOTAL OUT =           0.5000

            IN - OUT =       2.4420E-10              IN - OUT =           0.0000

 PERCENT DISCREPANCY =           0.00     PERCENT DISCREPANCY =           0.00






          TIME SUMMARY AT END OF TIME STEP         9 IN STRESS PERIOD        13
                    SECONDS     MINUTES      HOURS       DAYS        YEARS
                    -----------------------------------------------------------
   TIME STEP LENGTH 4.29341E+05  7155.7      119.26      4.9692     1.36050E-02
 STRESS PERIOD TIME 2.07679E+06  34613.      576.89      24.037     6.58095E-02
         TOTAL TIME 3.31808E+07 5.53013E+05  9216.9      384.04      1.0514    
1
 -------------------------------------------------------------------------------------
 
 SOLVING FOR HEAD 

 Outer-Iteration  Inner-Iteration  Backtracking  Number of        Incoming       Outgoing  Maximum HeadChange      Maximum Head Change
     Number           Count           Flag       Backtracks       Residual       Residual           Value              Location
        1                             0             0          0.373120E-01     0.373120E-01
        1                7                                                                       -0.273337                   400           GWF-node number
        1                7                                                                       -0.257528                     1           CLN-node number
        2                             0             0          0.180552E-14     0.180552E-14
        2                1                                                                       -0.561776E-07               417           GWF-node number
        2                1                                                                       -0.103035E-06                 3           CLN-node number
     2 CALLS TO SPARSE MATRIX SOLVER PACKAGE  IN FLOW TIME STEP      10 STRESS PERIOD      13

 TOTAL OF       2OUTER ITERATIONS
  MAXIMUM CHANGE FOR EACH ITERATION:
   MAX. CHANGE        NODE  MAX. CHANGE        NODE  MAX. CHANGE        NODE  MAX. CHANGE        NODE  MAX. CHANGE        NODE
 ------------------------------------------------------------------------------------------------------------------------------------
  -0.27334    ,        400 -0.56178E-07,        417

  MAXIMUM CHANGE FOR CLN NODE AT EACH ITERATION:
   MAX. CHANGE    CLN-CELL  MAX. CHANGE    CLN-CELL  MAX. CHANGE    CLN-CELL  MAX. CHANGE    CLN-CELL  MAX. CHANGE    CLN-CELL
 ------------------------------------------------------------------------------------------------------------------------------------
  -0.25753    ,          1 -0.10303E-06,          3

 HEAD/DRAWDOWN PRINTOUT FLAG = 1     TOTAL BUDGET PRINTOUT FLAG = 1
 CELL-BY-CELL FLOW TERM FLAG = 1
 CONCENTRATION PRINTOUT FLAG = 1

 OUTPUT FLAGS FOR ALL LAYERS ARE THE SAME:
   HEAD    DRAWDOWN  HEAD  DRAWDOWN    CONC    CONC
 PRINTOUT  PRINTOUT  SAVE    SAVE    PRINTOUT  SAVE
 ---------------------------------------------------
     0         0       1       1       0       1
 UBUDSVU SAVING "         STORAGE" ON UNIT  50 AT TIME STEP     10, STRESS PERIOD     13
 UBUDSV SAVING "     CLN STORAGE" ON UNIT 144 AT TIME STEP     10, STRESS PERIOD      13
 UBUDSVU SAVING "   CONSTANT HEAD" ON UNIT  50 AT TIME STEP     10, STRESS PERIOD     13
 UBUDSVU SAVING "   FLOW JA FACE " ON UNIT  50 AT TIME STEP     10, STRESS PERIOD     13
 UBUDSVU SAVING "             CLN" ON UNIT  50 AT TIME STEP     10, STRESS PERIOD     13
 UBUDSVU SAVING "  CLN CONST HEAD" ON UNIT 144 AT TIME STEP     10, STRESS PERIOD     13
 UBUDSVU SAVING "   FLOW CLN FACE" ON UNIT 144 AT TIME STEP     10, STRESS PERIOD     13
 UBUDSVU SAVING "             GWF" ON UNIT 144 AT TIME STEP     10, STRESS PERIOD     13
 UBUDSVU SAVING "           WELLS" ON UNIT  50 AT TIME STEP     10, STRESS PERIOD     13
 UBUDSVU SAVING "           WELLS" ON UNIT 144 AT TIME STEP     10, STRESS PERIOD     13

 HEAD WILL BE SAVED ON UNIT       30 AT END OF TIME STEP       10, STRESS PERIOD       13

 DRAWDOWN WILL BE SAVED ON UNIT   31 AT END OF TIME STEP  10, STRESS PERIOD   13

 CLN HEAD WILL BE SAVED ON UNIT   77 AT END OF TIME STEP  10, STRESS PERIOD   13
1
  VOLUMETRIC BUDGET FOR ENTIRE MODEL AT END OF TIME STEP      10 IN STRESS PERIOD      13
  ---------------------------------------------------------------------------------------

     CUMULATIVE VOLUMES      L**3       RATES FOR THIS TIME STEP      L**3/T
     ------------------                 ------------------------

           IN:                                      IN:
           ---                                      ---
             STORAGE =        1949.9999               STORAGE =           5.0000
         CLN STORAGE =           0.0000           CLN STORAGE =           0.0000
       CONSTANT HEAD =           0.0000         CONSTANT HEAD =           0.0000
      CLN CONST HEAD =           0.0000        CLN CONST HEAD =           0.0000
               WELLS =           0.0000                 WELLS =           0.0000

            TOTAL IN =        1949.9999              TOTAL IN =           5.0000

          OUT:                                     OUT:
          ----                                     ----
             STORAGE =           0.0000               STORAGE =           0.0000
         CLN STORAGE =           0.0000           CLN STORAGE =           0.0000
       CONSTANT HEAD =           0.0000         CONSTANT HEAD =           0.0000
      CLN CONST HEAD =           0.0000        CLN CONST HEAD =           0.0000
               WELLS =        1949.9999                 WELLS =           5.0000

           TOTAL OUT =        1949.9999             TOTAL OUT =           5.0000

            IN - OUT =       1.8958E-05              IN - OUT =       4.9552E-08

 PERCENT DISCREPANCY =           0.00     PERCENT DISCREPANCY =           0.00






          TIME SUMMARY AT END OF TIME STEP        10 IN STRESS PERIOD        13
                    SECONDS     MINUTES      HOURS       DAYS        YEARS
                    -----------------------------------------------------------
   TIME STEP LENGTH 5.15209E+05  8586.8      143.11      5.9631     1.63260E-02
 STRESS PERIOD TIME 2.59200E+06  43200.      720.00      30.000     8.21355E-02
         TOTAL TIME 3.36960E+07 5.61600E+05  9360.0      390.00      1.0678    
1
 ------------------------------------------------------------------------------------------------------------
 
 SOLVING FOR TRANSPORT 

 ------------------------------------------------------------------------------------------------------------------------
     1 CALLS TO SPARSE MATRIX SOLVER PACKAGE IN TRANSPORT TIME STEP      10 STRESS PERIOD      13 SPECIES  1

 TOTAL OF       1OUTER ITERATIONS
  MAXIMUM CHANGE FOR EACH ITERATION:
   MAX. CHANGE        NODE  MAX. CHANGE        NODE  MAX. CHANGE        NODE  MAX. CHANGE        NODE  MAX. CHANGE        NODE
 ------------------------------------------------------------------------------------------------------------------------------------
  -0.38993E-10,        191

  MAXIMUM CHANGE FOR CLN NODE AT EACH ITERATION:
   MAX. CHANGE    CLN-CELL  MAX. CHANGE    CLN-CELL  MAX. CHANGE    CLN-CELL  MAX. CHANGE    CLN-CELL  MAX. CHANGE    CLN-CELL
 ------------------------------------------------------------------------------------------------------------------------------------
   0.17985E-08,          3
     TRANSPORT SOLUTION COMPLETE FOR COMPONENT SPECIES NUMBER    1
     ------------------------------------------------------------
 UBUDSVU SAVING "    MASS STORAGE" ON UNIT 145 AT TIME STEP     10, STRESS PERIOD     13
 UBUDSVU SAVING "CLN MASS STORAGE" ON UNIT 145 AT TIME STEP     10, STRESS PERIOD     13
 UBUDSVU SAVING "CNST H MASS FLUX" ON UNIT 145 AT TIME STEP     10, STRESS PERIOD     13
 UBUDSVU SAVING "  WELL MASS FLUX" ON UNIT 145 AT TIME STEP     10, STRESS PERIOD     13

 TRANSPORT SOLUTION COMPLETE FOR ALL SPECIES, SORTING OUTPUT FOR CONCENTRATIONS AND MASS BALANCE
 ----------------------------------------------------------------------------------------------------
     TRANSPORT OUTPUT FOR COMPONENT SPECIES NUMBER    1
     ------------------------------------------------------------

 CONC WILL BE SAVED ON UNIT  132 AT END OF TIME STEP       10, STRESS PERIOD       13

 CLN CONC WILL BE SAVED ON UNIT  188 AT END OF TIME STEP  10, STRESS PERIOD   13
1
  VOLUMETRIC BUDGET FOR ENTIRE MODEL AT END OF TIME STEP      10 IN STRESS PERIOD      13
  ---------------------------------------------------------------------------------------

     CUMULATIVE VOLUMES      L**3       RATES FOR THIS TIME STEP      L**3/T
     ------------------                 ------------------------

           IN:                                      IN:
           ---                                      ---
        MASS STORAGE =         195.0000          MASS STORAGE =           0.5000
    CNST H MASS FLUX =           0.0000      CNST H MASS FLUX =           0.0000
      WELL MASS FLUX =           0.0000        WELL MASS FLUX =           0.0000

            TOTAL IN =         195.0000              TOTAL IN =           0.5000

          OUT:                                     OUT:
          ----                                     ----
        MASS STORAGE =           0.2827          MASS STORAGE =       6.1223E-10
    CNST H MASS FLUX =           0.0000      CNST H MASS FLUX =           0.0000
      WELL MASS FLUX =         194.7173        WELL MASS FLUX =           0.5000

           TOTAL OUT =         195.0000             TOTAL OUT =           0.5000

            IN - OUT =       2.2342E-10              IN - OUT =      -6.1223E-10

 PERCENT DISCREPANCY =           0.00     PERCENT DISCREPANCY =          -0.00






          TIME SUMMARY AT END OF TIME STEP        10 IN STRESS PERIOD        13
                    SECONDS     MINUTES      HOURS       DAYS        YEARS
                    -----------------------------------------------------------
   TIME STEP LENGTH 5.15209E+05  8586.8      143.11      5.9631     1.63260E-02
 STRESS PERIOD TIME 2.59200E+06  43200.      720.00      30.000     8.21355E-02
         TOTAL TIME 3.36960E+07 5.61600E+05  9360.0      390.00      1.0678    
1
1
                            STRESS PERIOD NO.   14, LENGTH =   30.00000    
                            -----------------------------------------------

                              NUMBER OF TIME STEPS =        10

                               MULTIPLIER FOR DELT =     1.200

                            INITIAL TIME STEP SIZE =   1.155682    

 WEL -- WELL PACKAGE, VERSION 7, 5/2/2005 INPUT READ FROM UNIT   12

 WELL NO.  CLN-NODE       STRESS FACTOR         C01             
 ---------------------------------------------------------------
        1            3      -5.000           0.000           0.000    

      1 WELL 
 -------------------------------------------------------------------------------------
 
 SOLVING FOR HEAD 

 Outer-Iteration  Inner-Iteration  Backtracking  Number of        Incoming       Outgoing  Maximum HeadChange      Maximum Head Change
     Number           Count           Flag       Backtracks       Residual       Residual           Value              Location
        1                             0             0          0.371936E-01     0.371936E-01
        1                5                                                                       -0.529475E-01               400           GWF-node number
        1                5                                                                       -0.498880E-01                 1           CLN-node number
        2                             0             0          0.475943E-14     0.475943E-14
        2                1                                                                       -0.905791E-08               190           GWF-node number
        2                1                                                                       -0.239770E-07                 3           CLN-node number


     2 CALLS TO SPARSE MATRIX SOLVER PACKAGE  IN FLOW TIME STEP       1 STRESS PERIOD      14

 TOTAL OF       2OUTER ITERATIONS
  MAXIMUM CHANGE FOR EACH ITERATION:
   MAX. CHANGE        NODE  MAX. CHANGE        NODE  MAX. CHANGE        NODE  MAX. CHANGE        NODE  MAX. CHANGE        NODE
 ------------------------------------------------------------------------------------------------------------------------------------
  -0.52948E-01,        400 -0.90579E-08,        190

  MAXIMUM CHANGE FOR CLN NODE AT EACH ITERATION:
   MAX. CHANGE    CLN-CELL  MAX. CHANGE    CLN-CELL  MAX. CHANGE    CLN-CELL  MAX. CHANGE    CLN-CELL  MAX. CHANGE    CLN-CELL
 ------------------------------------------------------------------------------------------------------------------------------------
  -0.49888E-01,          1 -0.23977E-07,          3

 HEAD/DRAWDOWN PRINTOUT FLAG = 1     TOTAL BUDGET PRINTOUT FLAG = 1
 CELL-BY-CELL FLOW TERM FLAG = 1
 CONCENTRATION PRINTOUT FLAG = 1

 OUTPUT FLAGS FOR ALL LAYERS ARE THE SAME:
   HEAD    DRAWDOWN  HEAD  DRAWDOWN    CONC    CONC
 PRINTOUT  PRINTOUT  SAVE    SAVE    PRINTOUT  SAVE
 ---------------------------------------------------
     0         0       1       1       0       1
 UBUDSVU SAVING "         STORAGE" ON UNIT  50 AT TIME STEP      1, STRESS PERIOD     14
 UBUDSV SAVING "     CLN STORAGE" ON UNIT 144 AT TIME STEP      1, STRESS PERIOD      14
 UBUDSVU SAVING "   CONSTANT HEAD" ON UNIT  50 AT TIME STEP      1, STRESS PERIOD     14
 UBUDSVU SAVING "   FLOW JA FACE " ON UNIT  50 AT TIME STEP      1, STRESS PERIOD     14
 UBUDSVU SAVING "             CLN" ON UNIT  50 AT TIME STEP      1, STRESS PERIOD     14
 UBUDSVU SAVING "  CLN CONST HEAD" ON UNIT 144 AT TIME STEP      1, STRESS PERIOD     14
 UBUDSVU SAVING "   FLOW CLN FACE" ON UNIT 144 AT TIME STEP      1, STRESS PERIOD     14
 UBUDSVU SAVING "             GWF" ON UNIT 144 AT TIME STEP      1, STRESS PERIOD     14
 UBUDSVU SAVING "           WELLS" ON UNIT  50 AT TIME STEP      1, STRESS PERIOD     14
 UBUDSVU SAVING "           WELLS" ON UNIT 144 AT TIME STEP      1, STRESS PERIOD     14

 HEAD WILL BE SAVED ON UNIT       30 AT END OF TIME STEP        1, STRESS PERIOD       14

 DRAWDOWN WILL BE SAVED ON UNIT   31 AT END OF TIME STEP   1, STRESS PERIOD   14

 CLN HEAD WILL BE SAVED ON UNIT   77 AT END OF TIME STEP   1, STRESS PERIOD   14
1
  VOLUMETRIC BUDGET FOR ENTIRE MODEL AT END OF TIME STEP       1 IN STRESS PERIOD      14
  ---------------------------------------------------------------------------------------

     CUMULATIVE VOLUMES      L**3       RATES FOR THIS TIME STEP      L**3/T
     ------------------                 ------------------------

           IN:                                      IN:
           ---                                      ---
             STORAGE =        1955.7784               STORAGE =           5.0000
         CLN STORAGE =           0.0000           CLN STORAGE =           0.0000
       CONSTANT HEAD =           0.0000         CONSTANT HEAD =           0.0000
      CLN CONST HEAD =           0.0000        CLN CONST HEAD =           0.0000
               WELLS =           0.0000                 WELLS =           0.0000

            TOTAL IN =        1955.7784              TOTAL IN =           5.0000

          OUT:                                     OUT:
          ----                                     ----
             STORAGE =           0.0000               STORAGE =           0.0000
         CLN STORAGE =           0.0000           CLN STORAGE =           0.0000
       CONSTANT HEAD =           0.0000         CONSTANT HEAD =           0.0000
      CLN CONST HEAD =           0.0000        CLN CONST HEAD =           0.0000
               WELLS =        1955.7783                 WELLS =           5.0000

           TOTAL OUT =        1955.7783             TOTAL OUT =           5.0000

            IN - OUT =       1.9010E-05              IN - OUT =       4.4850E-08

 PERCENT DISCREPANCY =           0.00     PERCENT DISCREPANCY =           0.00






          TIME SUMMARY AT END OF TIME STEP         1 IN STRESS PERIOD        14
                    SECONDS     MINUTES      HOURS       DAYS        YEARS
                    -----------------------------------------------------------
   TIME STEP LENGTH  99851.      1664.2      27.736      1.1557     3.16409E-03
 STRESS PERIOD TIME  99851.      1664.2      27.736      1.1557     3.16409E-03
         TOTAL TIME 3.37958E+07 5.63264E+05  9387.7      391.16      1.0709    
1
 ------------------------------------------------------------------------------------------------------------
 
 SOLVING FOR TRANSPORT 

 ------------------------------------------------------------------------------------------------------------------------
     1 CALLS TO SPARSE MATRIX SOLVER PACKAGE IN TRANSPORT TIME STEP       1 STRESS PERIOD      14 SPECIES  1

 TOTAL OF       1OUTER ITERATIONS
  MAXIMUM CHANGE FOR EACH ITERATION:
   MAX. CHANGE        NODE  MAX. CHANGE        NODE  MAX. CHANGE        NODE  MAX. CHANGE        NODE  MAX. CHANGE        NODE
 ------------------------------------------------------------------------------------------------------------------------------------
  -0.34190E-11,        191

  MAXIMUM CHANGE FOR CLN NODE AT EACH ITERATION:
   MAX. CHANGE    CLN-CELL  MAX. CHANGE    CLN-CELL  MAX. CHANGE    CLN-CELL  MAX. CHANGE    CLN-CELL  MAX. CHANGE    CLN-CELL
 ------------------------------------------------------------------------------------------------------------------------------------
  -0.35424E-09,          3
     TRANSPORT SOLUTION COMPLETE FOR COMPONENT SPECIES NUMBER    1
     ------------------------------------------------------------
 UBUDSVU SAVING "    MASS STORAGE" ON UNIT 145 AT TIME STEP      1, STRESS PERIOD     14
 UBUDSVU SAVING "CLN MASS STORAGE" ON UNIT 145 AT TIME STEP      1, STRESS PERIOD     14
 UBUDSVU SAVING "CNST H MASS FLUX" ON UNIT 145 AT TIME STEP      1, STRESS PERIOD     14
 UBUDSVU SAVING "  WELL MASS FLUX" ON UNIT 145 AT TIME STEP      1, STRESS PERIOD     14

 TRANSPORT SOLUTION COMPLETE FOR ALL SPECIES, SORTING OUTPUT FOR CONCENTRATIONS AND MASS BALANCE
 ----------------------------------------------------------------------------------------------------
     TRANSPORT OUTPUT FOR COMPONENT SPECIES NUMBER    1
     ------------------------------------------------------------

 CONC WILL BE SAVED ON UNIT  132 AT END OF TIME STEP        1, STRESS PERIOD       14

 CLN CONC WILL BE SAVED ON UNIT  188 AT END OF TIME STEP   1, STRESS PERIOD   14
1
  VOLUMETRIC BUDGET FOR ENTIRE MODEL AT END OF TIME STEP       1 IN STRESS PERIOD      14
  ---------------------------------------------------------------------------------------

     CUMULATIVE VOLUMES      L**3       RATES FOR THIS TIME STEP      L**3/T
     ------------------                 ------------------------

           IN:                                      IN:
           ---                                      ---
        MASS STORAGE =         195.5778          MASS STORAGE =           0.5000
    CNST H MASS FLUX =           0.0000      CNST H MASS FLUX =           0.0000
      WELL MASS FLUX =           0.0000        WELL MASS FLUX =           0.0000

            TOTAL IN =         195.5778              TOTAL IN =           0.5000

          OUT:                                     OUT:
          ----                                     ----
        MASS STORAGE =           0.2827          MASS STORAGE =       1.6906E-10
    CNST H MASS FLUX =           0.0000      CNST H MASS FLUX =           0.0000
      WELL MASS FLUX =         195.2951        WELL MASS FLUX =           0.5000

           TOTAL OUT =         195.5778             TOTAL OUT =           0.5000

            IN - OUT =       2.2342E-10              IN - OUT =      -1.6906E-10

 PERCENT DISCREPANCY =           0.00     PERCENT DISCREPANCY =          -0.00






          TIME SUMMARY AT END OF TIME STEP         1 IN STRESS PERIOD        14
                    SECONDS     MINUTES      HOURS       DAYS        YEARS
                    -----------------------------------------------------------
   TIME STEP LENGTH  99851.      1664.2      27.736      1.1557     3.16409E-03
 STRESS PERIOD TIME  99851.      1664.2      27.736      1.1557     3.16409E-03
         TOTAL TIME 3.37958E+07 5.63264E+05  9387.7      391.16      1.0709    
1
 -------------------------------------------------------------------------------------
 
 SOLVING FOR HEAD 

 Outer-Iteration  Inner-Iteration  Backtracking  Number of        Incoming       Outgoing  Maximum HeadChange      Maximum Head Change
     Number           Count           Flag       Backtracks       Residual       Residual           Value              Location
        1                             0             0          0.371708E-01     0.371708E-01
        1                5                                                                       -0.634983E-01               400           GWF-node number
        1                5                                                                       -0.598332E-01                 3           CLN-node number
        2                             0             0          0.100127E-14     0.100127E-14
        2                1                                                                        0.883239E-08               190           GWF-node number
        2                1                                                                        0.289844E-07                 3           CLN-node number
     2 CALLS TO SPARSE MATRIX SOLVER PACKAGE  IN FLOW TIME STEP       2 STRESS PERIOD      14

 TOTAL OF       2OUTER ITERATIONS
  MAXIMUM CHANGE FOR EACH ITERATION:
   MAX. CHANGE        NODE  MAX. CHANGE        NODE  MAX. CHANGE        NODE  MAX. CHANGE        NODE  MAX. CHANGE        NODE
 ------------------------------------------------------------------------------------------------------------------------------------
  -0.63498E-01,        400  0.88324E-08,        190

  MAXIMUM CHANGE FOR CLN NODE AT EACH ITERATION:
   MAX. CHANGE    CLN-CELL  MAX. CHANGE    CLN-CELL  MAX. CHANGE    CLN-CELL  MAX. CHANGE    CLN-CELL  MAX. CHANGE    CLN-CELL
 ------------------------------------------------------------------------------------------------------------------------------------
  -0.59833E-01,          3  0.28984E-07,          3

 HEAD/DRAWDOWN PRINTOUT FLAG = 1     TOTAL BUDGET PRINTOUT FLAG = 1
 CELL-BY-CELL FLOW TERM FLAG = 1
 CONCENTRATION PRINTOUT FLAG = 1

 OUTPUT FLAGS FOR ALL LAYERS ARE THE SAME:
   HEAD    DRAWDOWN  HEAD  DRAWDOWN    CONC    CONC
 PRINTOUT  PRINTOUT  SAVE    SAVE    PRINTOUT  SAVE
 ---------------------------------------------------
     0         0       1       1       0       1
 UBUDSVU SAVING "         STORAGE" ON UNIT  50 AT TIME STEP      2, STRESS PERIOD     14
 UBUDSV SAVING "     CLN STORAGE" ON UNIT 144 AT TIME STEP      2, STRESS PERIOD      14
 UBUDSVU SAVING "   CONSTANT HEAD" ON UNIT  50 AT TIME STEP      2, STRESS PERIOD     14
 UBUDSVU SAVING "   FLOW JA FACE " ON UNIT  50 AT TIME STEP      2, STRESS PERIOD     14
 UBUDSVU SAVING "             CLN" ON UNIT  50 AT TIME STEP      2, STRESS PERIOD     14
 UBUDSVU SAVING "  CLN CONST HEAD" ON UNIT 144 AT TIME STEP      2, STRESS PERIOD     14
 UBUDSVU SAVING "   FLOW CLN FACE" ON UNIT 144 AT TIME STEP      2, STRESS PERIOD     14
 UBUDSVU SAVING "             GWF" ON UNIT 144 AT TIME STEP      2, STRESS PERIOD     14
 UBUDSVU SAVING "           WELLS" ON UNIT  50 AT TIME STEP      2, STRESS PERIOD     14
 UBUDSVU SAVING "           WELLS" ON UNIT 144 AT TIME STEP      2, STRESS PERIOD     14

 HEAD WILL BE SAVED ON UNIT       30 AT END OF TIME STEP        2, STRESS PERIOD       14

 DRAWDOWN WILL BE SAVED ON UNIT   31 AT END OF TIME STEP   2, STRESS PERIOD   14

 CLN HEAD WILL BE SAVED ON UNIT   77 AT END OF TIME STEP   2, STRESS PERIOD   14
1
  VOLUMETRIC BUDGET FOR ENTIRE MODEL AT END OF TIME STEP       2 IN STRESS PERIOD      14
  ---------------------------------------------------------------------------------------

     CUMULATIVE VOLUMES      L**3       RATES FOR THIS TIME STEP      L**3/T
     ------------------                 ------------------------

           IN:                                      IN:
           ---                                      ---
             STORAGE =        1962.7125               STORAGE =           5.0000
         CLN STORAGE =           0.0000           CLN STORAGE =           0.0000
       CONSTANT HEAD =           0.0000         CONSTANT HEAD =           0.0000
      CLN CONST HEAD =           0.0000        CLN CONST HEAD =           0.0000
               WELLS =           0.0000                 WELLS =           0.0000

            TOTAL IN =        1962.7125              TOTAL IN =           5.0000

          OUT:                                     OUT:
          ----                                     ----
             STORAGE =           0.0000               STORAGE =           0.0000
         CLN STORAGE =           0.0000           CLN STORAGE =           0.0000
       CONSTANT HEAD =           0.0000         CONSTANT HEAD =           0.0000
      CLN CONST HEAD =           0.0000        CLN CONST HEAD =           0.0000
               WELLS =        1962.7124                 WELLS =           5.0000

           TOTAL OUT =        1962.7124             TOTAL OUT =           5.0000

            IN - OUT =       1.9004E-05              IN - OUT =      -4.1567E-09

 PERCENT DISCREPANCY =           0.00     PERCENT DISCREPANCY =          -0.00






          TIME SUMMARY AT END OF TIME STEP         2 IN STRESS PERIOD        14
                    SECONDS     MINUTES      HOURS       DAYS        YEARS
                    -----------------------------------------------------------
   TIME STEP LENGTH 1.19821E+05  1997.0      33.284      1.3868     3.79690E-03
 STRESS PERIOD TIME 2.19672E+05  3661.2      61.020      2.5425     6.96099E-03
         TOTAL TIME 3.39157E+07 5.65261E+05  9421.0      392.54      1.0747    
1
 ------------------------------------------------------------------------------------------------------------
 
 SOLVING FOR TRANSPORT 

 ------------------------------------------------------------------------------------------------------------------------
     1 CALLS TO SPARSE MATRIX SOLVER PACKAGE IN TRANSPORT TIME STEP       2 STRESS PERIOD      14 SPECIES  1

 TOTAL OF       1OUTER ITERATIONS
  MAXIMUM CHANGE FOR EACH ITERATION:
   MAX. CHANGE        NODE  MAX. CHANGE        NODE  MAX. CHANGE        NODE  MAX. CHANGE        NODE  MAX. CHANGE        NODE
 ------------------------------------------------------------------------------------------------------------------------------------
  -0.13950E-11,        191

  MAXIMUM CHANGE FOR CLN NODE AT EACH ITERATION:
   MAX. CHANGE    CLN-CELL  MAX. CHANGE    CLN-CELL  MAX. CHANGE    CLN-CELL  MAX. CHANGE    CLN-CELL  MAX. CHANGE    CLN-CELL
 ------------------------------------------------------------------------------------------------------------------------------------
  -0.98499E-09,          3
     TRANSPORT SOLUTION COMPLETE FOR COMPONENT SPECIES NUMBER    1
     ------------------------------------------------------------
 UBUDSVU SAVING "    MASS STORAGE" ON UNIT 145 AT TIME STEP      2, STRESS PERIOD     14
 UBUDSVU SAVING "CLN MASS STORAGE" ON UNIT 145 AT TIME STEP      2, STRESS PERIOD     14
 UBUDSVU SAVING "CNST H MASS FLUX" ON UNIT 145 AT TIME STEP      2, STRESS PERIOD     14
 UBUDSVU SAVING "  WELL MASS FLUX" ON UNIT 145 AT TIME STEP      2, STRESS PERIOD     14

 TRANSPORT SOLUTION COMPLETE FOR ALL SPECIES, SORTING OUTPUT FOR CONCENTRATIONS AND MASS BALANCE
 ----------------------------------------------------------------------------------------------------
     TRANSPORT OUTPUT FOR COMPONENT SPECIES NUMBER    1
     ------------------------------------------------------------

 CONC WILL BE SAVED ON UNIT  132 AT END OF TIME STEP        2, STRESS PERIOD       14

 CLN CONC WILL BE SAVED ON UNIT  188 AT END OF TIME STEP   2, STRESS PERIOD   14
1
  VOLUMETRIC BUDGET FOR ENTIRE MODEL AT END OF TIME STEP       2 IN STRESS PERIOD      14
  ---------------------------------------------------------------------------------------

     CUMULATIVE VOLUMES      L**3       RATES FOR THIS TIME STEP      L**3/T
     ------------------                 ------------------------

           IN:                                      IN:
           ---                                      ---
        MASS STORAGE =         196.2712          MASS STORAGE =           0.5000
    CNST H MASS FLUX =           0.0000      CNST H MASS FLUX =           0.0000
      WELL MASS FLUX =           0.0000        WELL MASS FLUX =           0.0000

            TOTAL IN =         196.2712              TOTAL IN =           0.5000

          OUT:                                     OUT:
          ----                                     ----
        MASS STORAGE =           0.2827          MASS STORAGE =           0.0000
    CNST H MASS FLUX =           0.0000      CNST H MASS FLUX =           0.0000
      WELL MASS FLUX =         195.9885        WELL MASS FLUX =           0.5000

           TOTAL OUT =         196.2712             TOTAL OUT =           0.5000

            IN - OUT =       2.2328E-10              IN - OUT =           0.0000

 PERCENT DISCREPANCY =           0.00     PERCENT DISCREPANCY =           0.00






          TIME SUMMARY AT END OF TIME STEP         2 IN STRESS PERIOD        14
                    SECONDS     MINUTES      HOURS       DAYS        YEARS
                    -----------------------------------------------------------
   TIME STEP LENGTH 1.19821E+05  1997.0      33.284      1.3868     3.79690E-03
 STRESS PERIOD TIME 2.19672E+05  3661.2      61.020      2.5425     6.96099E-03
         TOTAL TIME 3.39157E+07 5.65261E+05  9421.0      392.54      1.0747    
1
 -------------------------------------------------------------------------------------
 
 SOLVING FOR HEAD 

 Outer-Iteration  Inner-Iteration  Backtracking  Number of        Incoming       Outgoing  Maximum HeadChange      Maximum Head Change
     Number           Count           Flag       Backtracks       Residual       Residual           Value              Location
        1                             0             0          0.371435E-01     0.371435E-01
        1                5                                                                       -0.761422E-01               400           GWF-node number
        1                5                                                                       -0.717536E-01                 1           CLN-node number
        2                             0             0          0.397439E-14     0.397439E-14
        2                1                                                                       -0.545412E-07               190           GWF-node number
        2                1                                                                       -0.129106E-06                 2           CLN-node number
     2 CALLS TO SPARSE MATRIX SOLVER PACKAGE  IN FLOW TIME STEP       3 STRESS PERIOD      14

 TOTAL OF       2OUTER ITERATIONS
  MAXIMUM CHANGE FOR EACH ITERATION:
   MAX. CHANGE        NODE  MAX. CHANGE        NODE  MAX. CHANGE        NODE  MAX. CHANGE        NODE  MAX. CHANGE        NODE
 ------------------------------------------------------------------------------------------------------------------------------------
  -0.76142E-01,        400 -0.54541E-07,        190

  MAXIMUM CHANGE FOR CLN NODE AT EACH ITERATION:
   MAX. CHANGE    CLN-CELL  MAX. CHANGE    CLN-CELL  MAX. CHANGE    CLN-CELL  MAX. CHANGE    CLN-CELL  MAX. CHANGE    CLN-CELL
 ------------------------------------------------------------------------------------------------------------------------------------
  -0.71754E-01,          1 -0.12911E-06,          2

 HEAD/DRAWDOWN PRINTOUT FLAG = 1     TOTAL BUDGET PRINTOUT FLAG = 1
 CELL-BY-CELL FLOW TERM FLAG = 1
 CONCENTRATION PRINTOUT FLAG = 1

 OUTPUT FLAGS FOR ALL LAYERS ARE THE SAME:
   HEAD    DRAWDOWN  HEAD  DRAWDOWN    CONC    CONC
 PRINTOUT  PRINTOUT  SAVE    SAVE    PRINTOUT  SAVE
 ---------------------------------------------------
     0         0       1       1       0       1
 UBUDSVU SAVING "         STORAGE" ON UNIT  50 AT TIME STEP      3, STRESS PERIOD     14
 UBUDSV SAVING "     CLN STORAGE" ON UNIT 144 AT TIME STEP      3, STRESS PERIOD      14
 UBUDSVU SAVING "   CONSTANT HEAD" ON UNIT  50 AT TIME STEP      3, STRESS PERIOD     14
 UBUDSVU SAVING "   FLOW JA FACE " ON UNIT  50 AT TIME STEP      3, STRESS PERIOD     14
 UBUDSVU SAVING "             CLN" ON UNIT  50 AT TIME STEP      3, STRESS PERIOD     14
 UBUDSVU SAVING "  CLN CONST HEAD" ON UNIT 144 AT TIME STEP      3, STRESS PERIOD     14
 UBUDSVU SAVING "   FLOW CLN FACE" ON UNIT 144 AT TIME STEP      3, STRESS PERIOD     14
 UBUDSVU SAVING "             GWF" ON UNIT 144 AT TIME STEP      3, STRESS PERIOD     14
 UBUDSVU SAVING "           WELLS" ON UNIT  50 AT TIME STEP      3, STRESS PERIOD     14
 UBUDSVU SAVING "           WELLS" ON UNIT 144 AT TIME STEP      3, STRESS PERIOD     14

 HEAD WILL BE SAVED ON UNIT       30 AT END OF TIME STEP        3, STRESS PERIOD       14

 DRAWDOWN WILL BE SAVED ON UNIT   31 AT END OF TIME STEP   3, STRESS PERIOD   14

 CLN HEAD WILL BE SAVED ON UNIT   77 AT END OF TIME STEP   3, STRESS PERIOD   14
1
  VOLUMETRIC BUDGET FOR ENTIRE MODEL AT END OF TIME STEP       3 IN STRESS PERIOD      14
  ---------------------------------------------------------------------------------------

     CUMULATIVE VOLUMES      L**3       RATES FOR THIS TIME STEP      L**3/T
     ------------------                 ------------------------

           IN:                                      IN:
           ---                                      ---
             STORAGE =        1971.0334               STORAGE =           5.0000
         CLN STORAGE =           0.0000           CLN STORAGE =           0.0000
       CONSTANT HEAD =           0.0000         CONSTANT HEAD =           0.0000
      CLN CONST HEAD =           0.0000        CLN CONST HEAD =           0.0000
               WELLS =           0.0000                 WELLS =           0.0000

            TOTAL IN =        1971.0334              TOTAL IN =           5.0000

          OUT:                                     OUT:
          ----                                     ----
             STORAGE =           0.0000               STORAGE =           0.0000
         CLN STORAGE =           0.0000           CLN STORAGE =           0.0000
       CONSTANT HEAD =           0.0000         CONSTANT HEAD =           0.0000
      CLN CONST HEAD =           0.0000        CLN CONST HEAD =           0.0000
               WELLS =        1971.0333                 WELLS =           5.0000

           TOTAL OUT =        1971.0333             TOTAL OUT =           5.0000

            IN - OUT =       1.9037E-05              IN - OUT =       1.9956E-08

 PERCENT DISCREPANCY =           0.00     PERCENT DISCREPANCY =           0.00






          TIME SUMMARY AT END OF TIME STEP         3 IN STRESS PERIOD        14
                    SECONDS     MINUTES      HOURS       DAYS        YEARS
                    -----------------------------------------------------------
   TIME STEP LENGTH 1.43785E+05  2396.4      39.940      1.6642     4.55628E-03
 STRESS PERIOD TIME 3.63458E+05  6057.6      100.96      4.2067     1.15173E-02
         TOTAL TIME 3.40595E+07 5.67658E+05  9461.0      394.21      1.0793    
1
 ------------------------------------------------------------------------------------------------------------
 
 SOLVING FOR TRANSPORT 

 ------------------------------------------------------------------------------------------------------------------------
     1 CALLS TO SPARSE MATRIX SOLVER PACKAGE IN TRANSPORT TIME STEP       3 STRESS PERIOD      14 SPECIES  1

 TOTAL OF       1OUTER ITERATIONS
  MAXIMUM CHANGE FOR EACH ITERATION:
   MAX. CHANGE        NODE  MAX. CHANGE        NODE  MAX. CHANGE        NODE  MAX. CHANGE        NODE  MAX. CHANGE        NODE
 ------------------------------------------------------------------------------------------------------------------------------------
  -0.11622E-10,        191

  MAXIMUM CHANGE FOR CLN NODE AT EACH ITERATION:
   MAX. CHANGE    CLN-CELL  MAX. CHANGE    CLN-CELL  MAX. CHANGE    CLN-CELL  MAX. CHANGE    CLN-CELL  MAX. CHANGE    CLN-CELL
 ------------------------------------------------------------------------------------------------------------------------------------
   0.15330E-08,          2
     TRANSPORT SOLUTION COMPLETE FOR COMPONENT SPECIES NUMBER    1
     ------------------------------------------------------------
 UBUDSVU SAVING "    MASS STORAGE" ON UNIT 145 AT TIME STEP      3, STRESS PERIOD     14
 UBUDSVU SAVING "CLN MASS STORAGE" ON UNIT 145 AT TIME STEP      3, STRESS PERIOD     14
 UBUDSVU SAVING "CNST H MASS FLUX" ON UNIT 145 AT TIME STEP      3, STRESS PERIOD     14
 UBUDSVU SAVING "  WELL MASS FLUX" ON UNIT 145 AT TIME STEP      3, STRESS PERIOD     14

 TRANSPORT SOLUTION COMPLETE FOR ALL SPECIES, SORTING OUTPUT FOR CONCENTRATIONS AND MASS BALANCE
 ----------------------------------------------------------------------------------------------------
     TRANSPORT OUTPUT FOR COMPONENT SPECIES NUMBER    1
     ------------------------------------------------------------

 CONC WILL BE SAVED ON UNIT  132 AT END OF TIME STEP        3, STRESS PERIOD       14

 CLN CONC WILL BE SAVED ON UNIT  188 AT END OF TIME STEP   3, STRESS PERIOD   14
1
  VOLUMETRIC BUDGET FOR ENTIRE MODEL AT END OF TIME STEP       3 IN STRESS PERIOD      14
  ---------------------------------------------------------------------------------------

     CUMULATIVE VOLUMES      L**3       RATES FOR THIS TIME STEP      L**3/T
     ------------------                 ------------------------

           IN:                                      IN:
           ---                                      ---
        MASS STORAGE =         197.1033          MASS STORAGE =           0.5000
    CNST H MASS FLUX =           0.0000      CNST H MASS FLUX =           0.0000
      WELL MASS FLUX =           0.0000        WELL MASS FLUX =           0.0000

            TOTAL IN =         197.1033              TOTAL IN =           0.5000

          OUT:                                     OUT:
          ----                                     ----
        MASS STORAGE =           0.2827          MASS STORAGE =       7.5386E-10
    CNST H MASS FLUX =           0.0000      CNST H MASS FLUX =           0.0000
      WELL MASS FLUX =         196.8206        WELL MASS FLUX =           0.5000

           TOTAL OUT =         197.1033             TOTAL OUT =           0.5000

            IN - OUT =       2.2203E-10              IN - OUT =      -7.5386E-10

 PERCENT DISCREPANCY =           0.00     PERCENT DISCREPANCY =          -0.00






          TIME SUMMARY AT END OF TIME STEP         3 IN STRESS PERIOD        14
                    SECONDS     MINUTES      HOURS       DAYS        YEARS
                    -----------------------------------------------------------
   TIME STEP LENGTH 1.43785E+05  2396.4      39.940      1.6642     4.55628E-03
 STRESS PERIOD TIME 3.63458E+05  6057.6      100.96      4.2067     1.15173E-02
         TOTAL TIME 3.40595E+07 5.67658E+05  9461.0      394.21      1.0793    
1
 -------------------------------------------------------------------------------------
 
 SOLVING FOR HEAD 

 Outer-Iteration  Inner-Iteration  Backtracking  Number of        Incoming       Outgoing  Maximum HeadChange      Maximum Head Change
     Number           Count           Flag       Backtracks       Residual       Residual           Value              Location
        1                             0             0          0.371109E-01     0.371109E-01
        1                5                                                                       -0.912907E-01               400           GWF-node number
        1                5                                                                       -0.860375E-01                 3           CLN-node number
        2                             0             0          0.158941E-13     0.158941E-13
        2                1                                                                        0.499308E-07               470           GWF-node number
        2                1                                                                        0.110396E-06                 3           CLN-node number
     2 CALLS TO SPARSE MATRIX SOLVER PACKAGE  IN FLOW TIME STEP       4 STRESS PERIOD      14

 TOTAL OF       2OUTER ITERATIONS
  MAXIMUM CHANGE FOR EACH ITERATION:
   MAX. CHANGE        NODE  MAX. CHANGE        NODE  MAX. CHANGE        NODE  MAX. CHANGE        NODE  MAX. CHANGE        NODE
 ------------------------------------------------------------------------------------------------------------------------------------
  -0.91291E-01,        400  0.49931E-07,        470

  MAXIMUM CHANGE FOR CLN NODE AT EACH ITERATION:
   MAX. CHANGE    CLN-CELL  MAX. CHANGE    CLN-CELL  MAX. CHANGE    CLN-CELL  MAX. CHANGE    CLN-CELL  MAX. CHANGE    CLN-CELL
 ------------------------------------------------------------------------------------------------------------------------------------
  -0.86037E-01,          3  0.11040E-06,          3

 HEAD/DRAWDOWN PRINTOUT FLAG = 1     TOTAL BUDGET PRINTOUT FLAG = 1
 CELL-BY-CELL FLOW TERM FLAG = 1
 CONCENTRATION PRINTOUT FLAG = 1

 OUTPUT FLAGS FOR ALL LAYERS ARE THE SAME:
   HEAD    DRAWDOWN  HEAD  DRAWDOWN    CONC    CONC
 PRINTOUT  PRINTOUT  SAVE    SAVE    PRINTOUT  SAVE
 ---------------------------------------------------
     0         0       1       1       0       1
 UBUDSVU SAVING "         STORAGE" ON UNIT  50 AT TIME STEP      4, STRESS PERIOD     14
 UBUDSV SAVING "     CLN STORAGE" ON UNIT 144 AT TIME STEP      4, STRESS PERIOD      14
 UBUDSVU SAVING "   CONSTANT HEAD" ON UNIT  50 AT TIME STEP      4, STRESS PERIOD     14
 UBUDSVU SAVING "   FLOW JA FACE " ON UNIT  50 AT TIME STEP      4, STRESS PERIOD     14
 UBUDSVU SAVING "             CLN" ON UNIT  50 AT TIME STEP      4, STRESS PERIOD     14
 UBUDSVU SAVING "  CLN CONST HEAD" ON UNIT 144 AT TIME STEP      4, STRESS PERIOD     14
 UBUDSVU SAVING "   FLOW CLN FACE" ON UNIT 144 AT TIME STEP      4, STRESS PERIOD     14
 UBUDSVU SAVING "             GWF" ON UNIT 144 AT TIME STEP      4, STRESS PERIOD     14
 UBUDSVU SAVING "           WELLS" ON UNIT  50 AT TIME STEP      4, STRESS PERIOD     14
 UBUDSVU SAVING "           WELLS" ON UNIT 144 AT TIME STEP      4, STRESS PERIOD     14

 HEAD WILL BE SAVED ON UNIT       30 AT END OF TIME STEP        4, STRESS PERIOD       14

 DRAWDOWN WILL BE SAVED ON UNIT   31 AT END OF TIME STEP   4, STRESS PERIOD   14

 CLN HEAD WILL BE SAVED ON UNIT   77 AT END OF TIME STEP   4, STRESS PERIOD   14
1
  VOLUMETRIC BUDGET FOR ENTIRE MODEL AT END OF TIME STEP       4 IN STRESS PERIOD      14
  ---------------------------------------------------------------------------------------

     CUMULATIVE VOLUMES      L**3       RATES FOR THIS TIME STEP      L**3/T
     ------------------                 ------------------------

           IN:                                      IN:
           ---                                      ---
             STORAGE =        1981.0185               STORAGE =           5.0000
         CLN STORAGE =           0.0000           CLN STORAGE =           0.0000
       CONSTANT HEAD =           0.0000         CONSTANT HEAD =           0.0000
      CLN CONST HEAD =           0.0000        CLN CONST HEAD =           0.0000
               WELLS =           0.0000                 WELLS =           0.0000

            TOTAL IN =        1981.0185              TOTAL IN =           5.0000

          OUT:                                     OUT:
          ----                                     ----
             STORAGE =           0.0000               STORAGE =           0.0000
         CLN STORAGE =           0.0000           CLN STORAGE =           0.0000
       CONSTANT HEAD =           0.0000         CONSTANT HEAD =           0.0000
      CLN CONST HEAD =           0.0000        CLN CONST HEAD =           0.0000
               WELLS =        1981.0184                 WELLS =           5.0000

           TOTAL OUT =        1981.0184             TOTAL OUT =           5.0000

            IN - OUT =       1.9021E-05              IN - OUT =      -8.3116E-09

 PERCENT DISCREPANCY =           0.00     PERCENT DISCREPANCY =          -0.00






          TIME SUMMARY AT END OF TIME STEP         4 IN STRESS PERIOD        14
                    SECONDS     MINUTES      HOURS       DAYS        YEARS
                    -----------------------------------------------------------
   TIME STEP LENGTH 1.72542E+05  2875.7      47.928      1.9970     5.46754E-03
 STRESS PERIOD TIME 5.36000E+05  8933.3      148.89      6.2037     1.69848E-02
         TOTAL TIME 3.42320E+07 5.70533E+05  9508.9      396.20      1.0847    
1
 ------------------------------------------------------------------------------------------------------------
 
 SOLVING FOR TRANSPORT 

 ------------------------------------------------------------------------------------------------------------------------
     1 CALLS TO SPARSE MATRIX SOLVER PACKAGE IN TRANSPORT TIME STEP       4 STRESS PERIOD      14 SPECIES  1

 TOTAL OF       1OUTER ITERATIONS
  MAXIMUM CHANGE FOR EACH ITERATION:
   MAX. CHANGE        NODE  MAX. CHANGE        NODE  MAX. CHANGE        NODE  MAX. CHANGE        NODE  MAX. CHANGE        NODE
 ------------------------------------------------------------------------------------------------------------------------------------
   0.45038E-11,        191

  MAXIMUM CHANGE FOR CLN NODE AT EACH ITERATION:
   MAX. CHANGE    CLN-CELL  MAX. CHANGE    CLN-CELL  MAX. CHANGE    CLN-CELL  MAX. CHANGE    CLN-CELL  MAX. CHANGE    CLN-CELL
 ------------------------------------------------------------------------------------------------------------------------------------
  -0.19675E-08,          2
     TRANSPORT SOLUTION COMPLETE FOR COMPONENT SPECIES NUMBER    1
     ------------------------------------------------------------
 UBUDSVU SAVING "    MASS STORAGE" ON UNIT 145 AT TIME STEP      4, STRESS PERIOD     14
 UBUDSVU SAVING "CLN MASS STORAGE" ON UNIT 145 AT TIME STEP      4, STRESS PERIOD     14
 UBUDSVU SAVING "CNST H MASS FLUX" ON UNIT 145 AT TIME STEP      4, STRESS PERIOD     14
 UBUDSVU SAVING "  WELL MASS FLUX" ON UNIT 145 AT TIME STEP      4, STRESS PERIOD     14

 TRANSPORT SOLUTION COMPLETE FOR ALL SPECIES, SORTING OUTPUT FOR CONCENTRATIONS AND MASS BALANCE
 ----------------------------------------------------------------------------------------------------
     TRANSPORT OUTPUT FOR COMPONENT SPECIES NUMBER    1
     ------------------------------------------------------------

 CONC WILL BE SAVED ON UNIT  132 AT END OF TIME STEP        4, STRESS PERIOD       14

 CLN CONC WILL BE SAVED ON UNIT  188 AT END OF TIME STEP   4, STRESS PERIOD   14
1
  VOLUMETRIC BUDGET FOR ENTIRE MODEL AT END OF TIME STEP       4 IN STRESS PERIOD      14
  ---------------------------------------------------------------------------------------

     CUMULATIVE VOLUMES      L**3       RATES FOR THIS TIME STEP      L**3/T
     ------------------                 ------------------------

           IN:                                      IN:
           ---                                      ---
        MASS STORAGE =         198.1018          MASS STORAGE =           0.5000
    CNST H MASS FLUX =           0.0000      CNST H MASS FLUX =           0.0000
      WELL MASS FLUX =           0.0000        WELL MASS FLUX =           0.0000

            TOTAL IN =         198.1018              TOTAL IN =           0.5000

          OUT:                                     OUT:
          ----                                     ----
        MASS STORAGE =           0.2827          MASS STORAGE =           0.0000
    CNST H MASS FLUX =           0.0000      CNST H MASS FLUX =           0.0000
      WELL MASS FLUX =         197.8191        WELL MASS FLUX =           0.5000

           TOTAL OUT =         198.1018             TOTAL OUT =           0.5000

            IN - OUT =       2.2249E-10              IN - OUT =           0.0000

 PERCENT DISCREPANCY =           0.00     PERCENT DISCREPANCY =           0.00






          TIME SUMMARY AT END OF TIME STEP         4 IN STRESS PERIOD        14
                    SECONDS     MINUTES      HOURS       DAYS        YEARS
                    -----------------------------------------------------------
   TIME STEP LENGTH 1.72542E+05  2875.7      47.928      1.9970     5.46754E-03
 STRESS PERIOD TIME 5.36000E+05  8933.3      148.89      6.2037     1.69848E-02
         TOTAL TIME 3.42320E+07 5.70533E+05  9508.9      396.20      1.0847    
1
 -------------------------------------------------------------------------------------
 
 SOLVING FOR HEAD 

 Outer-Iteration  Inner-Iteration  Backtracking  Number of        Incoming       Outgoing  Maximum HeadChange      Maximum Head Change
     Number           Count           Flag       Backtracks       Residual       Residual           Value              Location
        1                             0             0          0.370720E-01     0.370720E-01
        1                6                                                                       -0.109434                   400           GWF-node number
        1                6                                                                       -0.103150                     1           CLN-node number
        2                             0             0          0.426253E-05     0.426253E-05
        2                4                                                                        0.252219E-03               190           GWF-node number
        2                4                                                                        0.564154E-03                 1           CLN-node number
     2 CALLS TO SPARSE MATRIX SOLVER PACKAGE  IN FLOW TIME STEP       5 STRESS PERIOD      14

 TOTAL OF       2OUTER ITERATIONS
  MAXIMUM CHANGE FOR EACH ITERATION:
   MAX. CHANGE        NODE  MAX. CHANGE        NODE  MAX. CHANGE        NODE  MAX. CHANGE        NODE  MAX. CHANGE        NODE
 ------------------------------------------------------------------------------------------------------------------------------------
  -0.10943    ,        400  0.25222E-03,        190

  MAXIMUM CHANGE FOR CLN NODE AT EACH ITERATION:
   MAX. CHANGE    CLN-CELL  MAX. CHANGE    CLN-CELL  MAX. CHANGE    CLN-CELL  MAX. CHANGE    CLN-CELL  MAX. CHANGE    CLN-CELL
 ------------------------------------------------------------------------------------------------------------------------------------
  -0.10315    ,          1  0.56415E-03,          1

 HEAD/DRAWDOWN PRINTOUT FLAG = 1     TOTAL BUDGET PRINTOUT FLAG = 1
 CELL-BY-CELL FLOW TERM FLAG = 1
 CONCENTRATION PRINTOUT FLAG = 1

 OUTPUT FLAGS FOR ALL LAYERS ARE THE SAME:
   HEAD    DRAWDOWN  HEAD  DRAWDOWN    CONC    CONC
 PRINTOUT  PRINTOUT  SAVE    SAVE    PRINTOUT  SAVE
 ---------------------------------------------------
     0         0       1       1       0       1
 UBUDSVU SAVING "         STORAGE" ON UNIT  50 AT TIME STEP      5, STRESS PERIOD     14
 UBUDSV SAVING "     CLN STORAGE" ON UNIT 144 AT TIME STEP      5, STRESS PERIOD      14
 UBUDSVU SAVING "   CONSTANT HEAD" ON UNIT  50 AT TIME STEP      5, STRESS PERIOD     14
 UBUDSVU SAVING "   FLOW JA FACE " ON UNIT  50 AT TIME STEP      5, STRESS PERIOD     14
 UBUDSVU SAVING "             CLN" ON UNIT  50 AT TIME STEP      5, STRESS PERIOD     14
 UBUDSVU SAVING "  CLN CONST HEAD" ON UNIT 144 AT TIME STEP      5, STRESS PERIOD     14
 UBUDSVU SAVING "   FLOW CLN FACE" ON UNIT 144 AT TIME STEP      5, STRESS PERIOD     14
 UBUDSVU SAVING "             GWF" ON UNIT 144 AT TIME STEP      5, STRESS PERIOD     14
 UBUDSVU SAVING "           WELLS" ON UNIT  50 AT TIME STEP      5, STRESS PERIOD     14
 UBUDSVU SAVING "           WELLS" ON UNIT 144 AT TIME STEP      5, STRESS PERIOD     14

 HEAD WILL BE SAVED ON UNIT       30 AT END OF TIME STEP        5, STRESS PERIOD       14

 DRAWDOWN WILL BE SAVED ON UNIT   31 AT END OF TIME STEP   5, STRESS PERIOD   14

 CLN HEAD WILL BE SAVED ON UNIT   77 AT END OF TIME STEP   5, STRESS PERIOD   14
1
  VOLUMETRIC BUDGET FOR ENTIRE MODEL AT END OF TIME STEP       5 IN STRESS PERIOD      14
  ---------------------------------------------------------------------------------------

     CUMULATIVE VOLUMES      L**3       RATES FOR THIS TIME STEP      L**3/T
     ------------------                 ------------------------

           IN:                                      IN:
           ---                                      ---
             STORAGE =        1993.0002               STORAGE =           4.9998
         CLN STORAGE =       4.1151E-04           CLN STORAGE =       1.7172E-04
       CONSTANT HEAD =           0.0000         CONSTANT HEAD =           0.0000
      CLN CONST HEAD =           0.0000        CLN CONST HEAD =           0.0000
               WELLS =           0.0000                 WELLS =           0.0000

            TOTAL IN =        1993.0006              TOTAL IN =           5.0000

          OUT:                                     OUT:
          ----                                     ----
             STORAGE =           0.0000               STORAGE =           0.0000
         CLN STORAGE =           0.0000           CLN STORAGE =           0.0000
       CONSTANT HEAD =           0.0000         CONSTANT HEAD =           0.0000
      CLN CONST HEAD =           0.0000        CLN CONST HEAD =           0.0000
               WELLS =        1993.0006                 WELLS =           5.0000

           TOTAL OUT =        1993.0006             TOTAL OUT =           5.0000

            IN - OUT =       1.9074E-05              IN - OUT =       2.2174E-08

 PERCENT DISCREPANCY =           0.00     PERCENT DISCREPANCY =           0.00






          TIME SUMMARY AT END OF TIME STEP         5 IN STRESS PERIOD        14
                    SECONDS     MINUTES      HOURS       DAYS        YEARS
                    -----------------------------------------------------------
   TIME STEP LENGTH 2.07051E+05  3450.8      57.514      2.3964     6.56105E-03
 STRESS PERIOD TIME 7.43051E+05  12384.      206.40      8.6001     2.35459E-02
         TOTAL TIME 3.44390E+07 5.73984E+05  9566.4      398.60      1.0913    
1
 ------------------------------------------------------------------------------------------------------------
 
 SOLVING FOR TRANSPORT 

 ------------------------------------------------------------------------------------------------------------------------
     1 CALLS TO SPARSE MATRIX SOLVER PACKAGE IN TRANSPORT TIME STEP       5 STRESS PERIOD      14 SPECIES  1

 TOTAL OF       1OUTER ITERATIONS
  MAXIMUM CHANGE FOR EACH ITERATION:
   MAX. CHANGE        NODE  MAX. CHANGE        NODE  MAX. CHANGE        NODE  MAX. CHANGE        NODE  MAX. CHANGE        NODE
 ------------------------------------------------------------------------------------------------------------------------------------
  -0.48559E-11,        191

  MAXIMUM CHANGE FOR CLN NODE AT EACH ITERATION:
   MAX. CHANGE    CLN-CELL  MAX. CHANGE    CLN-CELL  MAX. CHANGE    CLN-CELL  MAX. CHANGE    CLN-CELL  MAX. CHANGE    CLN-CELL
 ------------------------------------------------------------------------------------------------------------------------------------
   0.28218E-05,          1
     TRANSPORT SOLUTION COMPLETE FOR COMPONENT SPECIES NUMBER    1
     ------------------------------------------------------------
 UBUDSVU SAVING "    MASS STORAGE" ON UNIT 145 AT TIME STEP      5, STRESS PERIOD     14
 UBUDSVU SAVING "CLN MASS STORAGE" ON UNIT 145 AT TIME STEP      5, STRESS PERIOD     14
 UBUDSVU SAVING "CNST H MASS FLUX" ON UNIT 145 AT TIME STEP      5, STRESS PERIOD     14
 UBUDSVU SAVING "  WELL MASS FLUX" ON UNIT 145 AT TIME STEP      5, STRESS PERIOD     14

 TRANSPORT SOLUTION COMPLETE FOR ALL SPECIES, SORTING OUTPUT FOR CONCENTRATIONS AND MASS BALANCE
 ----------------------------------------------------------------------------------------------------
     TRANSPORT OUTPUT FOR COMPONENT SPECIES NUMBER    1
     ------------------------------------------------------------

 CONC WILL BE SAVED ON UNIT  132 AT END OF TIME STEP        5, STRESS PERIOD       14

 CLN CONC WILL BE SAVED ON UNIT  188 AT END OF TIME STEP   5, STRESS PERIOD   14
1
  VOLUMETRIC BUDGET FOR ENTIRE MODEL AT END OF TIME STEP       5 IN STRESS PERIOD      14
  ---------------------------------------------------------------------------------------

     CUMULATIVE VOLUMES      L**3       RATES FOR THIS TIME STEP      L**3/T
     ------------------                 ------------------------

           IN:                                      IN:
           ---                                      ---
        MASS STORAGE =         199.3001          MASS STORAGE =           0.5000
    CNST H MASS FLUX =           0.0000      CNST H MASS FLUX =           0.0000
      WELL MASS FLUX =           0.0000        WELL MASS FLUX =           0.0000

            TOTAL IN =         199.3001              TOTAL IN =           0.5000

          OUT:                                     OUT:
          ----                                     ----
        MASS STORAGE =           0.2827          MASS STORAGE =       3.6478E-10
    CNST H MASS FLUX =           0.0000      CNST H MASS FLUX =           0.0000
      WELL MASS FLUX =         199.0173        WELL MASS FLUX =           0.5000

           TOTAL OUT =         199.3001             TOTAL OUT =           0.5000

            IN - OUT =       2.2280E-10              IN - OUT =      -3.6478E-10

 PERCENT DISCREPANCY =           0.00     PERCENT DISCREPANCY =          -0.00






          TIME SUMMARY AT END OF TIME STEP         5 IN STRESS PERIOD        14
                    SECONDS     MINUTES      HOURS       DAYS        YEARS
                    -----------------------------------------------------------
   TIME STEP LENGTH 2.07051E+05  3450.8      57.514      2.3964     6.56105E-03
 STRESS PERIOD TIME 7.43051E+05  12384.      206.40      8.6001     2.35459E-02
         TOTAL TIME 3.44390E+07 5.73984E+05  9566.4      398.60      1.0913    
1
 -------------------------------------------------------------------------------------
 
 SOLVING FOR HEAD 

 Outer-Iteration  Inner-Iteration  Backtracking  Number of        Incoming       Outgoing  Maximum HeadChange      Maximum Head Change
     Number           Count           Flag       Backtracks       Residual       Residual           Value              Location
        1                             0             0          0.370227E-01     0.370227E-01
        1                6                                                                       -0.131156                   400           GWF-node number
        1                6                                                                       -0.114723                     3           CLN-node number
        2                             0             0          0.356886E-07     0.356886E-07
        2                1                                                                        0.608186E-07               190           GWF-node number
        2                1                                                                        0.158689E-06                 1           CLN-node number
     2 CALLS TO SPARSE MATRIX SOLVER PACKAGE  IN FLOW TIME STEP       6 STRESS PERIOD      14

 TOTAL OF       2OUTER ITERATIONS
  MAXIMUM CHANGE FOR EACH ITERATION:
   MAX. CHANGE        NODE  MAX. CHANGE        NODE  MAX. CHANGE        NODE  MAX. CHANGE        NODE  MAX. CHANGE        NODE
 ------------------------------------------------------------------------------------------------------------------------------------
  -0.13116    ,        400  0.60819E-07,        190

  MAXIMUM CHANGE FOR CLN NODE AT EACH ITERATION:
   MAX. CHANGE    CLN-CELL  MAX. CHANGE    CLN-CELL  MAX. CHANGE    CLN-CELL  MAX. CHANGE    CLN-CELL  MAX. CHANGE    CLN-CELL
 ------------------------------------------------------------------------------------------------------------------------------------
  -0.11472    ,          3  0.15869E-06,          1

 HEAD/DRAWDOWN PRINTOUT FLAG = 1     TOTAL BUDGET PRINTOUT FLAG = 1
 CELL-BY-CELL FLOW TERM FLAG = 1
 CONCENTRATION PRINTOUT FLAG = 1

 OUTPUT FLAGS FOR ALL LAYERS ARE THE SAME:
   HEAD    DRAWDOWN  HEAD  DRAWDOWN    CONC    CONC
 PRINTOUT  PRINTOUT  SAVE    SAVE    PRINTOUT  SAVE
 ---------------------------------------------------
     0         0       1       1       0       1
 UBUDSVU SAVING "         STORAGE" ON UNIT  50 AT TIME STEP      6, STRESS PERIOD     14
 UBUDSV SAVING "     CLN STORAGE" ON UNIT 144 AT TIME STEP      6, STRESS PERIOD      14
 UBUDSVU SAVING "   CONSTANT HEAD" ON UNIT  50 AT TIME STEP      6, STRESS PERIOD     14
 UBUDSVU SAVING "   FLOW JA FACE " ON UNIT  50 AT TIME STEP      6, STRESS PERIOD     14
 UBUDSVU SAVING "             CLN" ON UNIT  50 AT TIME STEP      6, STRESS PERIOD     14
 UBUDSVU SAVING "  CLN CONST HEAD" ON UNIT 144 AT TIME STEP      6, STRESS PERIOD     14
 UBUDSVU SAVING "   FLOW CLN FACE" ON UNIT 144 AT TIME STEP      6, STRESS PERIOD     14
 UBUDSVU SAVING "             GWF" ON UNIT 144 AT TIME STEP      6, STRESS PERIOD     14
 UBUDSVU SAVING "           WELLS" ON UNIT  50 AT TIME STEP      6, STRESS PERIOD     14
 UBUDSVU SAVING "           WELLS" ON UNIT 144 AT TIME STEP      6, STRESS PERIOD     14

 HEAD WILL BE SAVED ON UNIT       30 AT END OF TIME STEP        6, STRESS PERIOD       14

 DRAWDOWN WILL BE SAVED ON UNIT   31 AT END OF TIME STEP   6, STRESS PERIOD   14

 CLN HEAD WILL BE SAVED ON UNIT   77 AT END OF TIME STEP   6, STRESS PERIOD   14
1
  VOLUMETRIC BUDGET FOR ENTIRE MODEL AT END OF TIME STEP       6 IN STRESS PERIOD      14
  ---------------------------------------------------------------------------------------

     CUMULATIVE VOLUMES      L**3       RATES FOR THIS TIME STEP      L**3/T
     ------------------                 ------------------------

           IN:                                      IN:
           ---                                      ---
             STORAGE =        2007.3706               STORAGE =           4.9972
         CLN STORAGE =       8.4809E-03           CLN STORAGE =       2.8061E-03
       CONSTANT HEAD =           0.0000         CONSTANT HEAD =           0.0000
      CLN CONST HEAD =           0.0000        CLN CONST HEAD =           0.0000
               WELLS =           0.0000                 WELLS =           0.0000

            TOTAL IN =        2007.3791              TOTAL IN =           5.0000

          OUT:                                     OUT:
          ----                                     ----
             STORAGE =           0.0000               STORAGE =           0.0000
         CLN STORAGE =           0.0000           CLN STORAGE =           0.0000
       CONSTANT HEAD =           0.0000         CONSTANT HEAD =           0.0000
      CLN CONST HEAD =           0.0000        CLN CONST HEAD =           0.0000
               WELLS =        2007.3791                 WELLS =           5.0000

           TOTAL OUT =        2007.3791             TOTAL OUT =           5.0000

            IN - OUT =       1.9354E-05              IN - OUT =       9.7263E-08

 PERCENT DISCREPANCY =           0.00     PERCENT DISCREPANCY =           0.00






          TIME SUMMARY AT END OF TIME STEP         6 IN STRESS PERIOD        14
                    SECONDS     MINUTES      HOURS       DAYS        YEARS
                    -----------------------------------------------------------
   TIME STEP LENGTH 2.48461E+05  4141.0      69.017      2.8757     7.87326E-03
 STRESS PERIOD TIME 9.91512E+05  16525.      275.42      11.476     3.14191E-02
         TOTAL TIME 3.46875E+07 5.78125E+05  9635.4      401.48      1.0992    
1
 ------------------------------------------------------------------------------------------------------------
 
 SOLVING FOR TRANSPORT 

 ------------------------------------------------------------------------------------------------------------------------
     1 CALLS TO SPARSE MATRIX SOLVER PACKAGE IN TRANSPORT TIME STEP       6 STRESS PERIOD      14 SPECIES  1

 TOTAL OF       1OUTER ITERATIONS
  MAXIMUM CHANGE FOR EACH ITERATION:
   MAX. CHANGE        NODE  MAX. CHANGE        NODE  MAX. CHANGE        NODE  MAX. CHANGE        NODE  MAX. CHANGE        NODE
 ------------------------------------------------------------------------------------------------------------------------------------
   0.12680E-10,        191

  MAXIMUM CHANGE FOR CLN NODE AT EACH ITERATION:
   MAX. CHANGE    CLN-CELL  MAX. CHANGE    CLN-CELL  MAX. CHANGE    CLN-CELL  MAX. CHANGE    CLN-CELL  MAX. CHANGE    CLN-CELL
 ------------------------------------------------------------------------------------------------------------------------------------
  -0.25290E-05,          1
     TRANSPORT SOLUTION COMPLETE FOR COMPONENT SPECIES NUMBER    1
     ------------------------------------------------------------
 UBUDSVU SAVING "    MASS STORAGE" ON UNIT 145 AT TIME STEP      6, STRESS PERIOD     14
 UBUDSVU SAVING "CLN MASS STORAGE" ON UNIT 145 AT TIME STEP      6, STRESS PERIOD     14
 UBUDSVU SAVING "CNST H MASS FLUX" ON UNIT 145 AT TIME STEP      6, STRESS PERIOD     14
 UBUDSVU SAVING "  WELL MASS FLUX" ON UNIT 145 AT TIME STEP      6, STRESS PERIOD     14

 TRANSPORT SOLUTION COMPLETE FOR ALL SPECIES, SORTING OUTPUT FOR CONCENTRATIONS AND MASS BALANCE
 ----------------------------------------------------------------------------------------------------
     TRANSPORT OUTPUT FOR COMPONENT SPECIES NUMBER    1
     ------------------------------------------------------------

 CONC WILL BE SAVED ON UNIT  132 AT END OF TIME STEP        6, STRESS PERIOD       14

 CLN CONC WILL BE SAVED ON UNIT  188 AT END OF TIME STEP   6, STRESS PERIOD   14
1
  VOLUMETRIC BUDGET FOR ENTIRE MODEL AT END OF TIME STEP       6 IN STRESS PERIOD      14
  ---------------------------------------------------------------------------------------

     CUMULATIVE VOLUMES      L**3       RATES FOR THIS TIME STEP      L**3/T
     ------------------                 ------------------------

           IN:                                      IN:
           ---                                      ---
        MASS STORAGE =         200.7379          MASS STORAGE =           0.5000
    CNST H MASS FLUX =           0.0000      CNST H MASS FLUX =           0.0000
      WELL MASS FLUX =           0.0000        WELL MASS FLUX =           0.0000

            TOTAL IN =         200.7379              TOTAL IN =           0.5000

          OUT:                                     OUT:
          ----                                     ----
        MASS STORAGE =           0.2827          MASS STORAGE =       1.1324E-07
    CNST H MASS FLUX =           0.0000      CNST H MASS FLUX =           0.0000
      WELL MASS FLUX =         200.4552        WELL MASS FLUX =           0.5000

           TOTAL OUT =         200.7379             TOTAL OUT =           0.5000

            IN - OUT =       2.2288E-10              IN - OUT =       5.9657E-09

 PERCENT DISCREPANCY =           0.00     PERCENT DISCREPANCY =           0.00






          TIME SUMMARY AT END OF TIME STEP         6 IN STRESS PERIOD        14
                    SECONDS     MINUTES      HOURS       DAYS        YEARS
                    -----------------------------------------------------------
   TIME STEP LENGTH 2.48461E+05  4141.0      69.017      2.8757     7.87326E-03
 STRESS PERIOD TIME 9.91512E+05  16525.      275.42      11.476     3.14191E-02
         TOTAL TIME 3.46875E+07 5.78125E+05  9635.4      401.48      1.0992    
1
 -------------------------------------------------------------------------------------
 
 SOLVING FOR HEAD 

 Outer-Iteration  Inner-Iteration  Backtracking  Number of        Incoming       Outgoing  Maximum HeadChange      Maximum Head Change
     Number           Count           Flag       Backtracks       Residual       Residual           Value              Location
        1                             0             0          0.369305E-01     0.369305E-01
        1                6                                                                       -0.157147                   400           GWF-node number
        1                6                                                                       -0.146333                     2           CLN-node number
        2                             0             0          0.950637E-07     0.950637E-07
        2                1                                                                        0.461218E-07               401           GWF-node number
        2                1                                                                        0.164463E-07                 1           CLN-node number
     2 CALLS TO SPARSE MATRIX SOLVER PACKAGE  IN FLOW TIME STEP       7 STRESS PERIOD      14

 TOTAL OF       2OUTER ITERATIONS
  MAXIMUM CHANGE FOR EACH ITERATION:
   MAX. CHANGE        NODE  MAX. CHANGE        NODE  MAX. CHANGE        NODE  MAX. CHANGE        NODE  MAX. CHANGE        NODE
 ------------------------------------------------------------------------------------------------------------------------------------
  -0.15715    ,        400  0.46122E-07,        401

  MAXIMUM CHANGE FOR CLN NODE AT EACH ITERATION:
   MAX. CHANGE    CLN-CELL  MAX. CHANGE    CLN-CELL  MAX. CHANGE    CLN-CELL  MAX. CHANGE    CLN-CELL  MAX. CHANGE    CLN-CELL
 ------------------------------------------------------------------------------------------------------------------------------------
  -0.14633    ,          2  0.16446E-07,          1

 HEAD/DRAWDOWN PRINTOUT FLAG = 1     TOTAL BUDGET PRINTOUT FLAG = 1
 CELL-BY-CELL FLOW TERM FLAG = 1
 CONCENTRATION PRINTOUT FLAG = 1

 OUTPUT FLAGS FOR ALL LAYERS ARE THE SAME:
   HEAD    DRAWDOWN  HEAD  DRAWDOWN    CONC    CONC
 PRINTOUT  PRINTOUT  SAVE    SAVE    PRINTOUT  SAVE
 ---------------------------------------------------
     0         0       1       1       0       1
 UBUDSVU SAVING "         STORAGE" ON UNIT  50 AT TIME STEP      7, STRESS PERIOD     14
 UBUDSV SAVING "     CLN STORAGE" ON UNIT 144 AT TIME STEP      7, STRESS PERIOD      14
 UBUDSVU SAVING "   CONSTANT HEAD" ON UNIT  50 AT TIME STEP      7, STRESS PERIOD     14
 UBUDSVU SAVING "   FLOW JA FACE " ON UNIT  50 AT TIME STEP      7, STRESS PERIOD     14
 UBUDSVU SAVING "             CLN" ON UNIT  50 AT TIME STEP      7, STRESS PERIOD     14
 UBUDSVU SAVING "  CLN CONST HEAD" ON UNIT 144 AT TIME STEP      7, STRESS PERIOD     14
 UBUDSVU SAVING "   FLOW CLN FACE" ON UNIT 144 AT TIME STEP      7, STRESS PERIOD     14
 UBUDSVU SAVING "             GWF" ON UNIT 144 AT TIME STEP      7, STRESS PERIOD     14
 UBUDSVU SAVING "           WELLS" ON UNIT  50 AT TIME STEP      7, STRESS PERIOD     14
 UBUDSVU SAVING "           WELLS" ON UNIT 144 AT TIME STEP      7, STRESS PERIOD     14

 HEAD WILL BE SAVED ON UNIT       30 AT END OF TIME STEP        7, STRESS PERIOD       14

 DRAWDOWN WILL BE SAVED ON UNIT   31 AT END OF TIME STEP   7, STRESS PERIOD   14

 CLN HEAD WILL BE SAVED ON UNIT   77 AT END OF TIME STEP   7, STRESS PERIOD   14
1
  VOLUMETRIC BUDGET FOR ENTIRE MODEL AT END OF TIME STEP       7 IN STRESS PERIOD      14
  ---------------------------------------------------------------------------------------

     CUMULATIVE VOLUMES      L**3       RATES FOR THIS TIME STEP      L**3/T
     ------------------                 ------------------------

           IN:                                      IN:
           ---                                      ---
             STORAGE =        2024.6145               STORAGE =           4.9970
         CLN STORAGE =       1.8825E-02           CLN STORAGE =       2.9974E-03
       CONSTANT HEAD =           0.0000         CONSTANT HEAD =           0.0000
      CLN CONST HEAD =           0.0000        CLN CONST HEAD =           0.0000
               WELLS =           0.0000                 WELLS =           0.0000

            TOTAL IN =        2024.6334              TOTAL IN =           5.0000

          OUT:                                     OUT:
          ----                                     ----
             STORAGE =           0.0000               STORAGE =           0.0000
         CLN STORAGE =           0.0000           CLN STORAGE =           0.0000
       CONSTANT HEAD =           0.0000         CONSTANT HEAD =           0.0000
      CLN CONST HEAD =           0.0000        CLN CONST HEAD =           0.0000
               WELLS =        2024.6334                 WELLS =           5.0000

           TOTAL OUT =        2024.6334             TOTAL OUT =           5.0000

            IN - OUT =       1.9396E-05              IN - OUT =       1.2159E-08

 PERCENT DISCREPANCY =           0.00     PERCENT DISCREPANCY =           0.00






          TIME SUMMARY AT END OF TIME STEP         7 IN STRESS PERIOD        14
                    SECONDS     MINUTES      HOURS       DAYS        YEARS
                    -----------------------------------------------------------
   TIME STEP LENGTH 2.98153E+05  4969.2      82.820      3.4509     9.44791E-03
 STRESS PERIOD TIME 1.28967E+06  21494.      358.24      14.927     4.08670E-02
         TOTAL TIME 3.49857E+07 5.83094E+05  9718.2      404.93      1.1086    
1
 ------------------------------------------------------------------------------------------------------------
 
 SOLVING FOR TRANSPORT 

 ------------------------------------------------------------------------------------------------------------------------
     1 CALLS TO SPARSE MATRIX SOLVER PACKAGE IN TRANSPORT TIME STEP       7 STRESS PERIOD      14 SPECIES  1

 TOTAL OF       1OUTER ITERATIONS
  MAXIMUM CHANGE FOR EACH ITERATION:
   MAX. CHANGE        NODE  MAX. CHANGE        NODE  MAX. CHANGE        NODE  MAX. CHANGE        NODE  MAX. CHANGE        NODE
 ------------------------------------------------------------------------------------------------------------------------------------
  -0.48998E-11,        191

  MAXIMUM CHANGE FOR CLN NODE AT EACH ITERATION:
   MAX. CHANGE    CLN-CELL  MAX. CHANGE    CLN-CELL  MAX. CHANGE    CLN-CELL  MAX. CHANGE    CLN-CELL  MAX. CHANGE    CLN-CELL
 ------------------------------------------------------------------------------------------------------------------------------------
  -0.26670E-06,          1
     TRANSPORT SOLUTION COMPLETE FOR COMPONENT SPECIES NUMBER    1
     ------------------------------------------------------------
 UBUDSVU SAVING "    MASS STORAGE" ON UNIT 145 AT TIME STEP      7, STRESS PERIOD     14
 UBUDSVU SAVING "CLN MASS STORAGE" ON UNIT 145 AT TIME STEP      7, STRESS PERIOD     14
 UBUDSVU SAVING "CNST H MASS FLUX" ON UNIT 145 AT TIME STEP      7, STRESS PERIOD     14
 UBUDSVU SAVING "  WELL MASS FLUX" ON UNIT 145 AT TIME STEP      7, STRESS PERIOD     14

 TRANSPORT SOLUTION COMPLETE FOR ALL SPECIES, SORTING OUTPUT FOR CONCENTRATIONS AND MASS BALANCE
 ----------------------------------------------------------------------------------------------------
     TRANSPORT OUTPUT FOR COMPONENT SPECIES NUMBER    1
     ------------------------------------------------------------

 CONC WILL BE SAVED ON UNIT  132 AT END OF TIME STEP        7, STRESS PERIOD       14

 CLN CONC WILL BE SAVED ON UNIT  188 AT END OF TIME STEP   7, STRESS PERIOD   14
1
  VOLUMETRIC BUDGET FOR ENTIRE MODEL AT END OF TIME STEP       7 IN STRESS PERIOD      14
  ---------------------------------------------------------------------------------------

     CUMULATIVE VOLUMES      L**3       RATES FOR THIS TIME STEP      L**3/T
     ------------------                 ------------------------

           IN:                                      IN:
           ---                                      ---
        MASS STORAGE =         202.4633          MASS STORAGE =           0.5000
    CNST H MASS FLUX =           0.0000      CNST H MASS FLUX =           0.0000
      WELL MASS FLUX =           0.0000        WELL MASS FLUX =           0.0000

            TOTAL IN =         202.4633              TOTAL IN =           0.5000

          OUT:                                     OUT:
          ----                                     ----
        MASS STORAGE =           0.2827          MASS STORAGE =           0.0000
    CNST H MASS FLUX =           0.0000      CNST H MASS FLUX =           0.0000
      WELL MASS FLUX =         202.1806        WELL MASS FLUX =           0.5000

           TOTAL OUT =         202.4633             TOTAL OUT =           0.5000

            IN - OUT =       2.2268E-10              IN - OUT =           0.0000

 PERCENT DISCREPANCY =           0.00     PERCENT DISCREPANCY =           0.00






          TIME SUMMARY AT END OF TIME STEP         7 IN STRESS PERIOD        14
                    SECONDS     MINUTES      HOURS       DAYS        YEARS
                    -----------------------------------------------------------
   TIME STEP LENGTH 2.98153E+05  4969.2      82.820      3.4509     9.44791E-03
 STRESS PERIOD TIME 1.28967E+06  21494.      358.24      14.927     4.08670E-02
         TOTAL TIME 3.49857E+07 5.83094E+05  9718.2      404.93      1.1086    
1
 -------------------------------------------------------------------------------------
 
 SOLVING FOR HEAD 

 Outer-Iteration  Inner-Iteration  Backtracking  Number of        Incoming       Outgoing  Maximum HeadChange      Maximum Head Change
     Number           Count           Flag       Backtracks       Residual       Residual           Value              Location
        1                             0             0          0.368627E-01     0.368627E-01
        1                6                                                                       -0.188228                   400           GWF-node number
        1                6                                                                       -0.176734                     3           CLN-node number
        2                             0             0          0.208190E-06     0.208190E-06
        2                1                                                                        0.133449E-06               417           GWF-node number
        2                1                                                                        0.822132E-07                 1           CLN-node number
     2 CALLS TO SPARSE MATRIX SOLVER PACKAGE  IN FLOW TIME STEP       8 STRESS PERIOD      14

 TOTAL OF       2OUTER ITERATIONS
  MAXIMUM CHANGE FOR EACH ITERATION:
   MAX. CHANGE        NODE  MAX. CHANGE        NODE  MAX. CHANGE        NODE  MAX. CHANGE        NODE  MAX. CHANGE        NODE
 ------------------------------------------------------------------------------------------------------------------------------------
  -0.18823    ,        400  0.13345E-06,        417

  MAXIMUM CHANGE FOR CLN NODE AT EACH ITERATION:
   MAX. CHANGE    CLN-CELL  MAX. CHANGE    CLN-CELL  MAX. CHANGE    CLN-CELL  MAX. CHANGE    CLN-CELL  MAX. CHANGE    CLN-CELL
 ------------------------------------------------------------------------------------------------------------------------------------
  -0.17673    ,          3  0.82213E-07,          1

 HEAD/DRAWDOWN PRINTOUT FLAG = 1     TOTAL BUDGET PRINTOUT FLAG = 1
 CELL-BY-CELL FLOW TERM FLAG = 1
 CONCENTRATION PRINTOUT FLAG = 1

 OUTPUT FLAGS FOR ALL LAYERS ARE THE SAME:
   HEAD    DRAWDOWN  HEAD  DRAWDOWN    CONC    CONC
 PRINTOUT  PRINTOUT  SAVE    SAVE    PRINTOUT  SAVE
 ---------------------------------------------------
     0         0       1       1       0       1
 UBUDSVU SAVING "         STORAGE" ON UNIT  50 AT TIME STEP      8, STRESS PERIOD     14
 UBUDSV SAVING "     CLN STORAGE" ON UNIT 144 AT TIME STEP      8, STRESS PERIOD      14
 UBUDSVU SAVING "   CONSTANT HEAD" ON UNIT  50 AT TIME STEP      8, STRESS PERIOD     14
 UBUDSVU SAVING "   FLOW JA FACE " ON UNIT  50 AT TIME STEP      8, STRESS PERIOD     14
 UBUDSVU SAVING "             CLN" ON UNIT  50 AT TIME STEP      8, STRESS PERIOD     14
 UBUDSVU SAVING "  CLN CONST HEAD" ON UNIT 144 AT TIME STEP      8, STRESS PERIOD     14
 UBUDSVU SAVING "   FLOW CLN FACE" ON UNIT 144 AT TIME STEP      8, STRESS PERIOD     14
 UBUDSVU SAVING "             GWF" ON UNIT 144 AT TIME STEP      8, STRESS PERIOD     14
 UBUDSVU SAVING "           WELLS" ON UNIT  50 AT TIME STEP      8, STRESS PERIOD     14
 UBUDSVU SAVING "           WELLS" ON UNIT 144 AT TIME STEP      8, STRESS PERIOD     14

 HEAD WILL BE SAVED ON UNIT       30 AT END OF TIME STEP        8, STRESS PERIOD       14

 DRAWDOWN WILL BE SAVED ON UNIT   31 AT END OF TIME STEP   8, STRESS PERIOD   14

 CLN HEAD WILL BE SAVED ON UNIT   77 AT END OF TIME STEP   8, STRESS PERIOD   14
1
  VOLUMETRIC BUDGET FOR ENTIRE MODEL AT END OF TIME STEP       8 IN STRESS PERIOD      14
  ---------------------------------------------------------------------------------------

     CUMULATIVE VOLUMES      L**3       RATES FOR THIS TIME STEP      L**3/T
     ------------------                 ------------------------

           IN:                                      IN:
           ---                                      ---
             STORAGE =        2045.3072               STORAGE =           4.9970
         CLN STORAGE =       3.1317E-02           CLN STORAGE =       3.0168E-03
       CONSTANT HEAD =           0.0000         CONSTANT HEAD =           0.0000
      CLN CONST HEAD =           0.0000        CLN CONST HEAD =           0.0000
               WELLS =           0.0000                 WELLS =           0.0000

            TOTAL IN =        2045.3385              TOTAL IN =           5.0000

          OUT:                                     OUT:
          ----                                     ----
             STORAGE =           0.0000               STORAGE =           0.0000
         CLN STORAGE =           0.0000           CLN STORAGE =           0.0000
       CONSTANT HEAD =           0.0000         CONSTANT HEAD =           0.0000
      CLN CONST HEAD =           0.0000        CLN CONST HEAD =           0.0000
               WELLS =        2045.3385                 WELLS =           5.0000

           TOTAL OUT =        2045.3385             TOTAL OUT =           5.0000

            IN - OUT =       1.9449E-05              IN - OUT =       1.2955E-08

 PERCENT DISCREPANCY =           0.00     PERCENT DISCREPANCY =           0.00






          TIME SUMMARY AT END OF TIME STEP         8 IN STRESS PERIOD        14
                    SECONDS     MINUTES      HOURS       DAYS        YEARS
                    -----------------------------------------------------------
   TIME STEP LENGTH 3.57784E+05  5963.1      99.384      4.1410     1.13375E-02
 STRESS PERIOD TIME 1.64745E+06  27457.      457.62      19.068     5.22045E-02
         TOTAL TIME 3.53434E+07 5.89057E+05  9817.6      409.07      1.1200    
1
 ------------------------------------------------------------------------------------------------------------
 
 SOLVING FOR TRANSPORT 

 ------------------------------------------------------------------------------------------------------------------------
     1 CALLS TO SPARSE MATRIX SOLVER PACKAGE IN TRANSPORT TIME STEP       8 STRESS PERIOD      14 SPECIES  1

 TOTAL OF       1OUTER ITERATIONS
  MAXIMUM CHANGE FOR EACH ITERATION:
   MAX. CHANGE        NODE  MAX. CHANGE        NODE  MAX. CHANGE        NODE  MAX. CHANGE        NODE  MAX. CHANGE        NODE
 ------------------------------------------------------------------------------------------------------------------------------------
   0.51625E-11,        191

  MAXIMUM CHANGE FOR CLN NODE AT EACH ITERATION:
   MAX. CHANGE    CLN-CELL  MAX. CHANGE    CLN-CELL  MAX. CHANGE    CLN-CELL  MAX. CHANGE    CLN-CELL  MAX. CHANGE    CLN-CELL
 ------------------------------------------------------------------------------------------------------------------------------------
  -0.33796E-07,          3
     TRANSPORT SOLUTION COMPLETE FOR COMPONENT SPECIES NUMBER    1
     ------------------------------------------------------------
 UBUDSVU SAVING "    MASS STORAGE" ON UNIT 145 AT TIME STEP      8, STRESS PERIOD     14
 UBUDSVU SAVING "CLN MASS STORAGE" ON UNIT 145 AT TIME STEP      8, STRESS PERIOD     14
 UBUDSVU SAVING "CNST H MASS FLUX" ON UNIT 145 AT TIME STEP      8, STRESS PERIOD     14
 UBUDSVU SAVING "  WELL MASS FLUX" ON UNIT 145 AT TIME STEP      8, STRESS PERIOD     14

 TRANSPORT SOLUTION COMPLETE FOR ALL SPECIES, SORTING OUTPUT FOR CONCENTRATIONS AND MASS BALANCE
 ----------------------------------------------------------------------------------------------------
     TRANSPORT OUTPUT FOR COMPONENT SPECIES NUMBER    1
     ------------------------------------------------------------

 CONC WILL BE SAVED ON UNIT  132 AT END OF TIME STEP        8, STRESS PERIOD       14

 CLN CONC WILL BE SAVED ON UNIT  188 AT END OF TIME STEP   8, STRESS PERIOD   14
1
  VOLUMETRIC BUDGET FOR ENTIRE MODEL AT END OF TIME STEP       8 IN STRESS PERIOD      14
  ---------------------------------------------------------------------------------------

     CUMULATIVE VOLUMES      L**3       RATES FOR THIS TIME STEP      L**3/T
     ------------------                 ------------------------

           IN:                                      IN:
           ---                                      ---
        MASS STORAGE =         204.5339          MASS STORAGE =           0.5000
    CNST H MASS FLUX =           0.0000      CNST H MASS FLUX =           0.0000
      WELL MASS FLUX =           0.0000        WELL MASS FLUX =           0.0000

            TOTAL IN =         204.5339              TOTAL IN =           0.5000

          OUT:                                     OUT:
          ----                                     ----
        MASS STORAGE =           0.2827          MASS STORAGE =           0.0000
    CNST H MASS FLUX =           0.0000      CNST H MASS FLUX =           0.0000
      WELL MASS FLUX =         204.2511        WELL MASS FLUX =           0.5000

           TOTAL OUT =         204.5339             TOTAL OUT =           0.5000

            IN - OUT =       2.2223E-10              IN - OUT =           0.0000

 PERCENT DISCREPANCY =           0.00     PERCENT DISCREPANCY =           0.00






          TIME SUMMARY AT END OF TIME STEP         8 IN STRESS PERIOD        14
                    SECONDS     MINUTES      HOURS       DAYS        YEARS
                    -----------------------------------------------------------
   TIME STEP LENGTH 3.57784E+05  5963.1      99.384      4.1410     1.13375E-02
 STRESS PERIOD TIME 1.64745E+06  27457.      457.62      19.068     5.22045E-02
         TOTAL TIME 3.53434E+07 5.89057E+05  9817.6      409.07      1.1200    
1
 -------------------------------------------------------------------------------------
 
 SOLVING FOR HEAD 

 Outer-Iteration  Inner-Iteration  Backtracking  Number of        Incoming       Outgoing  Maximum HeadChange      Maximum Head Change
     Number           Count           Flag       Backtracks       Residual       Residual           Value              Location
        1                             0             0          0.367847E-01     0.367847E-01
        1                6                                                                       -0.225369                   400           GWF-node number
        1                6                                                                       -0.212118                     2           CLN-node number
        2                             0             0          0.448344E-06     0.448344E-06
        2                1                                                                        0.364684E-06               416           GWF-node number
        2                1                                                                        0.494300E-06                 1           CLN-node number
     2 CALLS TO SPARSE MATRIX SOLVER PACKAGE  IN FLOW TIME STEP       9 STRESS PERIOD      14

 TOTAL OF       2OUTER ITERATIONS
  MAXIMUM CHANGE FOR EACH ITERATION:
   MAX. CHANGE        NODE  MAX. CHANGE        NODE  MAX. CHANGE        NODE  MAX. CHANGE        NODE  MAX. CHANGE        NODE
 ------------------------------------------------------------------------------------------------------------------------------------
  -0.22537    ,        400  0.36468E-06,        416

  MAXIMUM CHANGE FOR CLN NODE AT EACH ITERATION:
   MAX. CHANGE    CLN-CELL  MAX. CHANGE    CLN-CELL  MAX. CHANGE    CLN-CELL  MAX. CHANGE    CLN-CELL  MAX. CHANGE    CLN-CELL
 ------------------------------------------------------------------------------------------------------------------------------------
  -0.21212    ,          2  0.49430E-06,          1

 HEAD/DRAWDOWN PRINTOUT FLAG = 1     TOTAL BUDGET PRINTOUT FLAG = 1
 CELL-BY-CELL FLOW TERM FLAG = 1
 CONCENTRATION PRINTOUT FLAG = 1

 OUTPUT FLAGS FOR ALL LAYERS ARE THE SAME:
   HEAD    DRAWDOWN  HEAD  DRAWDOWN    CONC    CONC
 PRINTOUT  PRINTOUT  SAVE    SAVE    PRINTOUT  SAVE
 ---------------------------------------------------
     0         0       1       1       0       1
 UBUDSVU SAVING "         STORAGE" ON UNIT  50 AT TIME STEP      9, STRESS PERIOD     14
 UBUDSV SAVING "     CLN STORAGE" ON UNIT 144 AT TIME STEP      9, STRESS PERIOD      14
 UBUDSVU SAVING "   CONSTANT HEAD" ON UNIT  50 AT TIME STEP      9, STRESS PERIOD     14
 UBUDSVU SAVING "   FLOW JA FACE " ON UNIT  50 AT TIME STEP      9, STRESS PERIOD     14
 UBUDSVU SAVING "             CLN" ON UNIT  50 AT TIME STEP      9, STRESS PERIOD     14
 UBUDSVU SAVING "  CLN CONST HEAD" ON UNIT 144 AT TIME STEP      9, STRESS PERIOD     14
 UBUDSVU SAVING "   FLOW CLN FACE" ON UNIT 144 AT TIME STEP      9, STRESS PERIOD     14
 UBUDSVU SAVING "             GWF" ON UNIT 144 AT TIME STEP      9, STRESS PERIOD     14
 UBUDSVU SAVING "           WELLS" ON UNIT  50 AT TIME STEP      9, STRESS PERIOD     14
 UBUDSVU SAVING "           WELLS" ON UNIT 144 AT TIME STEP      9, STRESS PERIOD     14

 HEAD WILL BE SAVED ON UNIT       30 AT END OF TIME STEP        9, STRESS PERIOD       14

 DRAWDOWN WILL BE SAVED ON UNIT   31 AT END OF TIME STEP   9, STRESS PERIOD   14

 CLN HEAD WILL BE SAVED ON UNIT   77 AT END OF TIME STEP   9, STRESS PERIOD   14
1
  VOLUMETRIC BUDGET FOR ENTIRE MODEL AT END OF TIME STEP       9 IN STRESS PERIOD      14
  ---------------------------------------------------------------------------------------

     CUMULATIVE VOLUMES      L**3       RATES FOR THIS TIME STEP      L**3/T
     ------------------                 ------------------------

           IN:                                      IN:
           ---                                      ---
             STORAGE =        2070.1383               STORAGE =           4.9970
         CLN STORAGE =       4.6311E-02           CLN STORAGE =       3.0173E-03
       CONSTANT HEAD =           0.0000         CONSTANT HEAD =           0.0000
      CLN CONST HEAD =           0.0000        CLN CONST HEAD =           0.0000
               WELLS =           0.0000                 WELLS =           0.0000

            TOTAL IN =        2070.1846              TOTAL IN =           5.0000

          OUT:                                     OUT:
          ----                                     ----
             STORAGE =           0.0000               STORAGE =           0.0000
         CLN STORAGE =           0.0000           CLN STORAGE =           0.0000
       CONSTANT HEAD =           0.0000         CONSTANT HEAD =           0.0000
      CLN CONST HEAD =           0.0000        CLN CONST HEAD =           0.0000
               WELLS =        2070.1846                 WELLS =           5.0000

           TOTAL OUT =        2070.1846             TOTAL OUT =           5.0000

            IN - OUT =       1.9680E-05              IN - OUT =       4.6451E-08

 PERCENT DISCREPANCY =           0.00     PERCENT DISCREPANCY =           0.00






          TIME SUMMARY AT END OF TIME STEP         9 IN STRESS PERIOD        14
                    SECONDS     MINUTES      HOURS       DAYS        YEARS
                    -----------------------------------------------------------
   TIME STEP LENGTH 4.29341E+05  7155.7      119.26      4.9692     1.36050E-02
 STRESS PERIOD TIME 2.07679E+06  34613.      576.89      24.037     6.58095E-02
         TOTAL TIME 3.57728E+07 5.96213E+05  9936.9      414.04      1.1336    
1
 ------------------------------------------------------------------------------------------------------------
 
 SOLVING FOR TRANSPORT 

 ------------------------------------------------------------------------------------------------------------------------
     1 CALLS TO SPARSE MATRIX SOLVER PACKAGE IN TRANSPORT TIME STEP       9 STRESS PERIOD      14 SPECIES  1

 TOTAL OF       1OUTER ITERATIONS
  MAXIMUM CHANGE FOR EACH ITERATION:
   MAX. CHANGE        NODE  MAX. CHANGE        NODE  MAX. CHANGE        NODE  MAX. CHANGE        NODE  MAX. CHANGE        NODE
 ------------------------------------------------------------------------------------------------------------------------------------
   0.90596E-10,        191

  MAXIMUM CHANGE FOR CLN NODE AT EACH ITERATION:
   MAX. CHANGE    CLN-CELL  MAX. CHANGE    CLN-CELL  MAX. CHANGE    CLN-CELL  MAX. CHANGE    CLN-CELL  MAX. CHANGE    CLN-CELL
 ------------------------------------------------------------------------------------------------------------------------------------
  -0.42464E-08,          3
     TRANSPORT SOLUTION COMPLETE FOR COMPONENT SPECIES NUMBER    1
     ------------------------------------------------------------
 UBUDSVU SAVING "    MASS STORAGE" ON UNIT 145 AT TIME STEP      9, STRESS PERIOD     14
 UBUDSVU SAVING "CLN MASS STORAGE" ON UNIT 145 AT TIME STEP      9, STRESS PERIOD     14
 UBUDSVU SAVING "CNST H MASS FLUX" ON UNIT 145 AT TIME STEP      9, STRESS PERIOD     14
 UBUDSVU SAVING "  WELL MASS FLUX" ON UNIT 145 AT TIME STEP      9, STRESS PERIOD     14

 TRANSPORT SOLUTION COMPLETE FOR ALL SPECIES, SORTING OUTPUT FOR CONCENTRATIONS AND MASS BALANCE
 ----------------------------------------------------------------------------------------------------
     TRANSPORT OUTPUT FOR COMPONENT SPECIES NUMBER    1
     ------------------------------------------------------------

 CONC WILL BE SAVED ON UNIT  132 AT END OF TIME STEP        9, STRESS PERIOD       14

 CLN CONC WILL BE SAVED ON UNIT  188 AT END OF TIME STEP   9, STRESS PERIOD   14
1
  VOLUMETRIC BUDGET FOR ENTIRE MODEL AT END OF TIME STEP       9 IN STRESS PERIOD      14
  ---------------------------------------------------------------------------------------

     CUMULATIVE VOLUMES      L**3       RATES FOR THIS TIME STEP      L**3/T
     ------------------                 ------------------------

           IN:                                      IN:
           ---                                      ---
        MASS STORAGE =         207.0185          MASS STORAGE =           0.5000
    CNST H MASS FLUX =           0.0000      CNST H MASS FLUX =           0.0000
      WELL MASS FLUX =           0.0000        WELL MASS FLUX =           0.0000

            TOTAL IN =         207.0185              TOTAL IN =           0.5000

          OUT:                                     OUT:
          ----                                     ----
        MASS STORAGE =           0.2827          MASS STORAGE =           0.0000
    CNST H MASS FLUX =           0.0000      CNST H MASS FLUX =           0.0000
      WELL MASS FLUX =         206.7357        WELL MASS FLUX =           0.5000

           TOTAL OUT =         207.0185             TOTAL OUT =           0.5000

            IN - OUT =       3.1164E-10              IN - OUT =           0.0000

 PERCENT DISCREPANCY =           0.00     PERCENT DISCREPANCY =           0.00






          TIME SUMMARY AT END OF TIME STEP         9 IN STRESS PERIOD        14
                    SECONDS     MINUTES      HOURS       DAYS        YEARS
                    -----------------------------------------------------------
   TIME STEP LENGTH 4.29341E+05  7155.7      119.26      4.9692     1.36050E-02
 STRESS PERIOD TIME 2.07679E+06  34613.      576.89      24.037     6.58095E-02
         TOTAL TIME 3.57728E+07 5.96213E+05  9936.9      414.04      1.1336    
1
 -------------------------------------------------------------------------------------
 
 SOLVING FOR HEAD 

 Outer-Iteration  Inner-Iteration  Backtracking  Number of        Incoming       Outgoing  Maximum HeadChange      Maximum Head Change
     Number           Count           Flag       Backtracks       Residual       Residual           Value              Location
        1                             0             0          0.366926E-01     0.366926E-01
        1                7                                                                       -0.269720                   400           GWF-node number
        1                7                                                                       -0.254185                     3           CLN-node number
        2                             0             0          0.966281E-06     0.966281E-06
        2                1                                                                       -0.561357E-07               417           GWF-node number
        2                1                                                                        0.512476E-07                 1           CLN-node number
     2 CALLS TO SPARSE MATRIX SOLVER PACKAGE  IN FLOW TIME STEP      10 STRESS PERIOD      14

 TOTAL OF       2OUTER ITERATIONS
  MAXIMUM CHANGE FOR EACH ITERATION:
   MAX. CHANGE        NODE  MAX. CHANGE        NODE  MAX. CHANGE        NODE  MAX. CHANGE        NODE  MAX. CHANGE        NODE
 ------------------------------------------------------------------------------------------------------------------------------------
  -0.26972    ,        400 -0.56136E-07,        417

  MAXIMUM CHANGE FOR CLN NODE AT EACH ITERATION:
   MAX. CHANGE    CLN-CELL  MAX. CHANGE    CLN-CELL  MAX. CHANGE    CLN-CELL  MAX. CHANGE    CLN-CELL  MAX. CHANGE    CLN-CELL
 ------------------------------------------------------------------------------------------------------------------------------------
  -0.25419    ,          3  0.51248E-07,          1

 HEAD/DRAWDOWN PRINTOUT FLAG = 1     TOTAL BUDGET PRINTOUT FLAG = 1
 CELL-BY-CELL FLOW TERM FLAG = 1
 CONCENTRATION PRINTOUT FLAG = 1

 OUTPUT FLAGS FOR ALL LAYERS ARE THE SAME:
   HEAD    DRAWDOWN  HEAD  DRAWDOWN    CONC    CONC
 PRINTOUT  PRINTOUT  SAVE    SAVE    PRINTOUT  SAVE
 ---------------------------------------------------
     0         0       1       1       0       1
 UBUDSVU SAVING "         STORAGE" ON UNIT  50 AT TIME STEP     10, STRESS PERIOD     14
 UBUDSV SAVING "     CLN STORAGE" ON UNIT 144 AT TIME STEP     10, STRESS PERIOD      14
 UBUDSVU SAVING "   CONSTANT HEAD" ON UNIT  50 AT TIME STEP     10, STRESS PERIOD     14
 UBUDSVU SAVING "   FLOW JA FACE " ON UNIT  50 AT TIME STEP     10, STRESS PERIOD     14
 UBUDSVU SAVING "             CLN" ON UNIT  50 AT TIME STEP     10, STRESS PERIOD     14
 UBUDSVU SAVING "  CLN CONST HEAD" ON UNIT 144 AT TIME STEP     10, STRESS PERIOD     14
 UBUDSVU SAVING "   FLOW CLN FACE" ON UNIT 144 AT TIME STEP     10, STRESS PERIOD     14
 UBUDSVU SAVING "             GWF" ON UNIT 144 AT TIME STEP     10, STRESS PERIOD     14
 UBUDSVU SAVING "           WELLS" ON UNIT  50 AT TIME STEP     10, STRESS PERIOD     14
 UBUDSVU SAVING "           WELLS" ON UNIT 144 AT TIME STEP     10, STRESS PERIOD     14

 HEAD WILL BE SAVED ON UNIT       30 AT END OF TIME STEP       10, STRESS PERIOD       14

 DRAWDOWN WILL BE SAVED ON UNIT   31 AT END OF TIME STEP  10, STRESS PERIOD   14

 CLN HEAD WILL BE SAVED ON UNIT   77 AT END OF TIME STEP  10, STRESS PERIOD   14
1
  VOLUMETRIC BUDGET FOR ENTIRE MODEL AT END OF TIME STEP      10 IN STRESS PERIOD      14
  ---------------------------------------------------------------------------------------

     CUMULATIVE VOLUMES      L**3       RATES FOR THIS TIME STEP      L**3/T
     ------------------                 ------------------------

           IN:                                      IN:
           ---                                      ---
             STORAGE =        2099.9357               STORAGE =           4.9970
         CLN STORAGE =       6.4278E-02           CLN STORAGE =       3.0131E-03
       CONSTANT HEAD =           0.0000         CONSTANT HEAD =           0.0000
      CLN CONST HEAD =           0.0000        CLN CONST HEAD =           0.0000
               WELLS =           0.0000                 WELLS =           0.0000

            TOTAL IN =        2099.9999              TOTAL IN =           5.0000

          OUT:                                     OUT:
          ----                                     ----
             STORAGE =           0.0000               STORAGE =           0.0000
         CLN STORAGE =           0.0000           CLN STORAGE =           0.0000
       CONSTANT HEAD =           0.0000         CONSTANT HEAD =           0.0000
      CLN CONST HEAD =           0.0000        CLN CONST HEAD =           0.0000
               WELLS =        2099.9999                 WELLS =           5.0000

           TOTAL OUT =        2099.9999             TOTAL OUT =           5.0000

            IN - OUT =       1.9913E-05              IN - OUT =       3.8970E-08

 PERCENT DISCREPANCY =           0.00     PERCENT DISCREPANCY =           0.00






          TIME SUMMARY AT END OF TIME STEP        10 IN STRESS PERIOD        14
                    SECONDS     MINUTES      HOURS       DAYS        YEARS
                    -----------------------------------------------------------
   TIME STEP LENGTH 5.15209E+05  8586.8      143.11      5.9631     1.63260E-02
 STRESS PERIOD TIME 2.59200E+06  43200.      720.00      30.000     8.21355E-02
         TOTAL TIME 3.62880E+07 6.04800E+05  10080.      420.00      1.1499    
1
 ------------------------------------------------------------------------------------------------------------
 
 SOLVING FOR TRANSPORT 

 ------------------------------------------------------------------------------------------------------------------------
     1 CALLS TO SPARSE MATRIX SOLVER PACKAGE IN TRANSPORT TIME STEP      10 STRESS PERIOD      14 SPECIES  1

 TOTAL OF       1OUTER ITERATIONS
  MAXIMUM CHANGE FOR EACH ITERATION:
   MAX. CHANGE        NODE  MAX. CHANGE        NODE  MAX. CHANGE        NODE  MAX. CHANGE        NODE  MAX. CHANGE        NODE
 ------------------------------------------------------------------------------------------------------------------------------------
   0.76842E-11,        190

  MAXIMUM CHANGE FOR CLN NODE AT EACH ITERATION:
   MAX. CHANGE    CLN-CELL  MAX. CHANGE    CLN-CELL  MAX. CHANGE    CLN-CELL  MAX. CHANGE    CLN-CELL  MAX. CHANGE    CLN-CELL
 ------------------------------------------------------------------------------------------------------------------------------------
  -0.23844E-08,          1
     TRANSPORT SOLUTION COMPLETE FOR COMPONENT SPECIES NUMBER    1
     ------------------------------------------------------------
 UBUDSVU SAVING "    MASS STORAGE" ON UNIT 145 AT TIME STEP     10, STRESS PERIOD     14
 UBUDSVU SAVING "CLN MASS STORAGE" ON UNIT 145 AT TIME STEP     10, STRESS PERIOD     14
 UBUDSVU SAVING "CNST H MASS FLUX" ON UNIT 145 AT TIME STEP     10, STRESS PERIOD     14
 UBUDSVU SAVING "  WELL MASS FLUX" ON UNIT 145 AT TIME STEP     10, STRESS PERIOD     14

 TRANSPORT SOLUTION COMPLETE FOR ALL SPECIES, SORTING OUTPUT FOR CONCENTRATIONS AND MASS BALANCE
 ----------------------------------------------------------------------------------------------------
     TRANSPORT OUTPUT FOR COMPONENT SPECIES NUMBER    1
     ------------------------------------------------------------

 CONC WILL BE SAVED ON UNIT  132 AT END OF TIME STEP       10, STRESS PERIOD       14

 CLN CONC WILL BE SAVED ON UNIT  188 AT END OF TIME STEP  10, STRESS PERIOD   14
1
  VOLUMETRIC BUDGET FOR ENTIRE MODEL AT END OF TIME STEP      10 IN STRESS PERIOD      14
  ---------------------------------------------------------------------------------------

     CUMULATIVE VOLUMES      L**3       RATES FOR THIS TIME STEP      L**3/T
     ------------------                 ------------------------

           IN:                                      IN:
           ---                                      ---
        MASS STORAGE =         210.0000          MASS STORAGE =           0.5000
    CNST H MASS FLUX =           0.0000      CNST H MASS FLUX =           0.0000
      WELL MASS FLUX =           0.0000        WELL MASS FLUX =           0.0000

            TOTAL IN =         210.0000              TOTAL IN =           0.5000

          OUT:                                     OUT:
          ----                                     ----
        MASS STORAGE =           0.2827          MASS STORAGE =       2.0223E-10
    CNST H MASS FLUX =           0.0000      CNST H MASS FLUX =           0.0000
      WELL MASS FLUX =         209.7173        WELL MASS FLUX =           0.5000

           TOTAL OUT =         210.0000             TOTAL OUT =           0.5000

            IN - OUT =       3.0948E-10              IN - OUT =      -2.0223E-10

 PERCENT DISCREPANCY =           0.00     PERCENT DISCREPANCY =          -0.00






          TIME SUMMARY AT END OF TIME STEP        10 IN STRESS PERIOD        14
                    SECONDS     MINUTES      HOURS       DAYS        YEARS
                    -----------------------------------------------------------
   TIME STEP LENGTH 5.15209E+05  8586.8      143.11      5.9631     1.63260E-02
 STRESS PERIOD TIME 2.59200E+06  43200.      720.00      30.000     8.21355E-02
         TOTAL TIME 3.62880E+07 6.04800E+05  10080.      420.00      1.1499    
1
1
                            STRESS PERIOD NO.   15, LENGTH =   30.00000    
                            -----------------------------------------------

                              NUMBER OF TIME STEPS =        10

                               MULTIPLIER FOR DELT =     1.200

                            INITIAL TIME STEP SIZE =   1.155682    

 WEL -- WELL PACKAGE, VERSION 7, 5/2/2005 INPUT READ FROM UNIT   12

 WELL NO.  CLN-NODE       STRESS FACTOR         C01             
 ---------------------------------------------------------------
        1            3      -5.000           0.000           0.000    

      1 WELL 
 -------------------------------------------------------------------------------------
 
 SOLVING FOR HEAD 

 Outer-Iteration  Inner-Iteration  Backtracking  Number of        Incoming       Outgoing  Maximum HeadChange      Maximum Head Change
     Number           Count           Flag       Backtracks       Residual       Residual           Value              Location
        1                             0             0          0.365838E-01     0.365838E-01
        1                5                                                                       -0.522464E-01               400           GWF-node number
        1                5                                                                       -0.492476E-01                 3           CLN-node number
        2                             0             0          0.143435E-08     0.143435E-08
        2                1                                                                       -0.140806E-07               190           GWF-node number
        2                1                                                                       -0.382233E-07                 3           CLN-node number


     2 CALLS TO SPARSE MATRIX SOLVER PACKAGE  IN FLOW TIME STEP       1 STRESS PERIOD      15

 TOTAL OF       2OUTER ITERATIONS
  MAXIMUM CHANGE FOR EACH ITERATION:
   MAX. CHANGE        NODE  MAX. CHANGE        NODE  MAX. CHANGE        NODE  MAX. CHANGE        NODE  MAX. CHANGE        NODE
 ------------------------------------------------------------------------------------------------------------------------------------
  -0.52246E-01,        400 -0.14081E-07,        190

  MAXIMUM CHANGE FOR CLN NODE AT EACH ITERATION:
   MAX. CHANGE    CLN-CELL  MAX. CHANGE    CLN-CELL  MAX. CHANGE    CLN-CELL  MAX. CHANGE    CLN-CELL  MAX. CHANGE    CLN-CELL
 ------------------------------------------------------------------------------------------------------------------------------------
  -0.49248E-01,          3 -0.38223E-07,          3

 HEAD/DRAWDOWN PRINTOUT FLAG = 1     TOTAL BUDGET PRINTOUT FLAG = 1
 CELL-BY-CELL FLOW TERM FLAG = 1
 CONCENTRATION PRINTOUT FLAG = 1

 OUTPUT FLAGS FOR ALL LAYERS ARE THE SAME:
   HEAD    DRAWDOWN  HEAD  DRAWDOWN    CONC    CONC
 PRINTOUT  PRINTOUT  SAVE    SAVE    PRINTOUT  SAVE
 ---------------------------------------------------
     0         0       1       1       0       1
 UBUDSVU SAVING "         STORAGE" ON UNIT  50 AT TIME STEP      1, STRESS PERIOD     15
 UBUDSV SAVING "     CLN STORAGE" ON UNIT 144 AT TIME STEP      1, STRESS PERIOD      15
 UBUDSVU SAVING "   CONSTANT HEAD" ON UNIT  50 AT TIME STEP      1, STRESS PERIOD     15
 UBUDSVU SAVING "   FLOW JA FACE " ON UNIT  50 AT TIME STEP      1, STRESS PERIOD     15
 UBUDSVU SAVING "             CLN" ON UNIT  50 AT TIME STEP      1, STRESS PERIOD     15
 UBUDSVU SAVING "  CLN CONST HEAD" ON UNIT 144 AT TIME STEP      1, STRESS PERIOD     15
 UBUDSVU SAVING "   FLOW CLN FACE" ON UNIT 144 AT TIME STEP      1, STRESS PERIOD     15
 UBUDSVU SAVING "             GWF" ON UNIT 144 AT TIME STEP      1, STRESS PERIOD     15
 UBUDSVU SAVING "           WELLS" ON UNIT  50 AT TIME STEP      1, STRESS PERIOD     15
 UBUDSVU SAVING "           WELLS" ON UNIT 144 AT TIME STEP      1, STRESS PERIOD     15

 HEAD WILL BE SAVED ON UNIT       30 AT END OF TIME STEP        1, STRESS PERIOD       15

 DRAWDOWN WILL BE SAVED ON UNIT   31 AT END OF TIME STEP   1, STRESS PERIOD   15

 CLN HEAD WILL BE SAVED ON UNIT   77 AT END OF TIME STEP   1, STRESS PERIOD   15
1
  VOLUMETRIC BUDGET FOR ENTIRE MODEL AT END OF TIME STEP       1 IN STRESS PERIOD      15
  ---------------------------------------------------------------------------------------

     CUMULATIVE VOLUMES      L**3       RATES FOR THIS TIME STEP      L**3/T
     ------------------                 ------------------------

           IN:                                      IN:
           ---                                      ---
             STORAGE =        2105.7106               STORAGE =           4.9970
         CLN STORAGE =       6.7759E-02           CLN STORAGE =       3.0122E-03
       CONSTANT HEAD =           0.0000         CONSTANT HEAD =           0.0000
      CLN CONST HEAD =           0.0000        CLN CONST HEAD =           0.0000
               WELLS =           0.0000                 WELLS =           0.0000

            TOTAL IN =        2105.7784              TOTAL IN =           5.0000

          OUT:                                     OUT:
          ----                                     ----
             STORAGE =           0.0000               STORAGE =           0.0000
         CLN STORAGE =           0.0000           CLN STORAGE =           0.0000
       CONSTANT HEAD =           0.0000         CONSTANT HEAD =           0.0000
      CLN CONST HEAD =           0.0000        CLN CONST HEAD =           0.0000
               WELLS =        2105.7783                 WELLS =           5.0000

           TOTAL OUT =        2105.7783             TOTAL OUT =           5.0000

            IN - OUT =       1.9949E-05              IN - OUT =       3.1970E-08

 PERCENT DISCREPANCY =           0.00     PERCENT DISCREPANCY =           0.00






          TIME SUMMARY AT END OF TIME STEP         1 IN STRESS PERIOD        15
                    SECONDS     MINUTES      HOURS       DAYS        YEARS
                    -----------------------------------------------------------
   TIME STEP LENGTH  99851.      1664.2      27.736      1.1557     3.16409E-03
 STRESS PERIOD TIME  99851.      1664.2      27.736      1.1557     3.16409E-03
         TOTAL TIME 3.63878E+07 6.06464E+05  10108.      421.16      1.1531    
1
 ------------------------------------------------------------------------------------------------------------
 
 SOLVING FOR TRANSPORT 

 ------------------------------------------------------------------------------------------------------------------------
     1 CALLS TO SPARSE MATRIX SOLVER PACKAGE IN TRANSPORT TIME STEP       1 STRESS PERIOD      15 SPECIES  1

 TOTAL OF       1OUTER ITERATIONS
  MAXIMUM CHANGE FOR EACH ITERATION:
   MAX. CHANGE        NODE  MAX. CHANGE        NODE  MAX. CHANGE        NODE  MAX. CHANGE        NODE  MAX. CHANGE        NODE
 ------------------------------------------------------------------------------------------------------------------------------------
  -0.45039E-11,        191

  MAXIMUM CHANGE FOR CLN NODE AT EACH ITERATION:
   MAX. CHANGE    CLN-CELL  MAX. CHANGE    CLN-CELL  MAX. CHANGE    CLN-CELL  MAX. CHANGE    CLN-CELL  MAX. CHANGE    CLN-CELL
 ------------------------------------------------------------------------------------------------------------------------------------
   0.59778E-09,          1
     TRANSPORT SOLUTION COMPLETE FOR COMPONENT SPECIES NUMBER    1
     ------------------------------------------------------------
 UBUDSVU SAVING "    MASS STORAGE" ON UNIT 145 AT TIME STEP      1, STRESS PERIOD     15
 UBUDSVU SAVING "CLN MASS STORAGE" ON UNIT 145 AT TIME STEP      1, STRESS PERIOD     15
 UBUDSVU SAVING "CNST H MASS FLUX" ON UNIT 145 AT TIME STEP      1, STRESS PERIOD     15
 UBUDSVU SAVING "  WELL MASS FLUX" ON UNIT 145 AT TIME STEP      1, STRESS PERIOD     15

 TRANSPORT SOLUTION COMPLETE FOR ALL SPECIES, SORTING OUTPUT FOR CONCENTRATIONS AND MASS BALANCE
 ----------------------------------------------------------------------------------------------------
     TRANSPORT OUTPUT FOR COMPONENT SPECIES NUMBER    1
     ------------------------------------------------------------

 CONC WILL BE SAVED ON UNIT  132 AT END OF TIME STEP        1, STRESS PERIOD       15

 CLN CONC WILL BE SAVED ON UNIT  188 AT END OF TIME STEP   1, STRESS PERIOD   15
1
  VOLUMETRIC BUDGET FOR ENTIRE MODEL AT END OF TIME STEP       1 IN STRESS PERIOD      15
  ---------------------------------------------------------------------------------------

     CUMULATIVE VOLUMES      L**3       RATES FOR THIS TIME STEP      L**3/T
     ------------------                 ------------------------

           IN:                                      IN:
           ---                                      ---
        MASS STORAGE =         210.5778          MASS STORAGE =           0.5000
    CNST H MASS FLUX =           0.0000      CNST H MASS FLUX =           0.0000
      WELL MASS FLUX =           0.0000        WELL MASS FLUX =           0.0000

            TOTAL IN =         210.5778              TOTAL IN =           0.5000

          OUT:                                     OUT:
          ----                                     ----
        MASS STORAGE =           0.2827          MASS STORAGE =       2.0198E-11
    CNST H MASS FLUX =           0.0000      CNST H MASS FLUX =           0.0000
      WELL MASS FLUX =         210.2951        WELL MASS FLUX =           0.5000

           TOTAL OUT =         210.5778             TOTAL OUT =           0.5000

            IN - OUT =       3.0911E-10              IN - OUT =      -2.0198E-11

 PERCENT DISCREPANCY =           0.00     PERCENT DISCREPANCY =          -0.00






          TIME SUMMARY AT END OF TIME STEP         1 IN STRESS PERIOD        15
                    SECONDS     MINUTES      HOURS       DAYS        YEARS
                    -----------------------------------------------------------
   TIME STEP LENGTH  99851.      1664.2      27.736      1.1557     3.16409E-03
 STRESS PERIOD TIME  99851.      1664.2      27.736      1.1557     3.16409E-03
         TOTAL TIME 3.63878E+07 6.06464E+05  10108.      421.16      1.1531    
1
 -------------------------------------------------------------------------------------
 
 SOLVING FOR HEAD 

 Outer-Iteration  Inner-Iteration  Backtracking  Number of        Incoming       Outgoing  Maximum HeadChange      Maximum Head Change
     Number           Count           Flag       Backtracks       Residual       Residual           Value              Location
        1                             0             0          0.365628E-01     0.365628E-01
        1                5                                                                       -0.626567E-01               400           GWF-node number
        1                5                                                                       -0.590733E-01                 3           CLN-node number
        2                             0             0          0.300263E-08     0.300263E-08
        2                1                                                                       -0.528379E-07               190           GWF-node number
        2                1                                                                       -0.139624E-06                 3           CLN-node number
     2 CALLS TO SPARSE MATRIX SOLVER PACKAGE  IN FLOW TIME STEP       2 STRESS PERIOD      15

 TOTAL OF       2OUTER ITERATIONS
  MAXIMUM CHANGE FOR EACH ITERATION:
   MAX. CHANGE        NODE  MAX. CHANGE        NODE  MAX. CHANGE        NODE  MAX. CHANGE        NODE  MAX. CHANGE        NODE
 ------------------------------------------------------------------------------------------------------------------------------------
  -0.62657E-01,        400 -0.52838E-07,        190

  MAXIMUM CHANGE FOR CLN NODE AT EACH ITERATION:
   MAX. CHANGE    CLN-CELL  MAX. CHANGE    CLN-CELL  MAX. CHANGE    CLN-CELL  MAX. CHANGE    CLN-CELL  MAX. CHANGE    CLN-CELL
 ------------------------------------------------------------------------------------------------------------------------------------
  -0.59073E-01,          3 -0.13962E-06,          3

 HEAD/DRAWDOWN PRINTOUT FLAG = 1     TOTAL BUDGET PRINTOUT FLAG = 1
 CELL-BY-CELL FLOW TERM FLAG = 1
 CONCENTRATION PRINTOUT FLAG = 1

 OUTPUT FLAGS FOR ALL LAYERS ARE THE SAME:
   HEAD    DRAWDOWN  HEAD  DRAWDOWN    CONC    CONC
 PRINTOUT  PRINTOUT  SAVE    SAVE    PRINTOUT  SAVE
 ---------------------------------------------------
     0         0       1       1       0       1
 UBUDSVU SAVING "         STORAGE" ON UNIT  50 AT TIME STEP      2, STRESS PERIOD     15
 UBUDSV SAVING "     CLN STORAGE" ON UNIT 144 AT TIME STEP      2, STRESS PERIOD      15
 UBUDSVU SAVING "   CONSTANT HEAD" ON UNIT  50 AT TIME STEP      2, STRESS PERIOD     15
 UBUDSVU SAVING "   FLOW JA FACE " ON UNIT  50 AT TIME STEP      2, STRESS PERIOD     15
 UBUDSVU SAVING "             CLN" ON UNIT  50 AT TIME STEP      2, STRESS PERIOD     15
 UBUDSVU SAVING "  CLN CONST HEAD" ON UNIT 144 AT TIME STEP      2, STRESS PERIOD     15
 UBUDSVU SAVING "   FLOW CLN FACE" ON UNIT 144 AT TIME STEP      2, STRESS PERIOD     15
 UBUDSVU SAVING "             GWF" ON UNIT 144 AT TIME STEP      2, STRESS PERIOD     15
 UBUDSVU SAVING "           WELLS" ON UNIT  50 AT TIME STEP      2, STRESS PERIOD     15
 UBUDSVU SAVING "           WELLS" ON UNIT 144 AT TIME STEP      2, STRESS PERIOD     15

 HEAD WILL BE SAVED ON UNIT       30 AT END OF TIME STEP        2, STRESS PERIOD       15

 DRAWDOWN WILL BE SAVED ON UNIT   31 AT END OF TIME STEP   2, STRESS PERIOD   15

 CLN HEAD WILL BE SAVED ON UNIT   77 AT END OF TIME STEP   2, STRESS PERIOD   15
1
  VOLUMETRIC BUDGET FOR ENTIRE MODEL AT END OF TIME STEP       2 IN STRESS PERIOD      15
  ---------------------------------------------------------------------------------------

     CUMULATIVE VOLUMES      L**3       RATES FOR THIS TIME STEP      L**3/T
     ------------------                 ------------------------

           IN:                                      IN:
           ---                                      ---
             STORAGE =        2112.6405               STORAGE =           4.9970
         CLN STORAGE =       7.1935E-02           CLN STORAGE =       3.0110E-03
       CONSTANT HEAD =           0.0000         CONSTANT HEAD =           0.0000
      CLN CONST HEAD =           0.0000        CLN CONST HEAD =           0.0000
               WELLS =           0.0000                 WELLS =           0.0000

            TOTAL IN =        2112.7124              TOTAL IN =           5.0000

          OUT:                                     OUT:
          ----                                     ----
             STORAGE =           0.0000               STORAGE =           0.0000
         CLN STORAGE =           0.0000           CLN STORAGE =           0.0000
       CONSTANT HEAD =           0.0000         CONSTANT HEAD =           0.0000
      CLN CONST HEAD =           0.0000        CLN CONST HEAD =           0.0000
               WELLS =        2112.7124                 WELLS =           5.0000

           TOTAL OUT =        2112.7124             TOTAL OUT =           5.0000

            IN - OUT =       1.9995E-05              IN - OUT =       3.3066E-08

 PERCENT DISCREPANCY =           0.00     PERCENT DISCREPANCY =           0.00






          TIME SUMMARY AT END OF TIME STEP         2 IN STRESS PERIOD        15
                    SECONDS     MINUTES      HOURS       DAYS        YEARS
                    -----------------------------------------------------------
   TIME STEP LENGTH 1.19821E+05  1997.0      33.284      1.3868     3.79690E-03
 STRESS PERIOD TIME 2.19672E+05  3661.2      61.020      2.5425     6.96099E-03
         TOTAL TIME 3.65077E+07 6.08461E+05  10141.      422.54      1.1569    
1
 ------------------------------------------------------------------------------------------------------------
 
 SOLVING FOR TRANSPORT 

 ------------------------------------------------------------------------------------------------------------------------
     1 CALLS TO SPARSE MATRIX SOLVER PACKAGE IN TRANSPORT TIME STEP       2 STRESS PERIOD      15 SPECIES  1

 TOTAL OF       1OUTER ITERATIONS
  MAXIMUM CHANGE FOR EACH ITERATION:
   MAX. CHANGE        NODE  MAX. CHANGE        NODE  MAX. CHANGE        NODE  MAX. CHANGE        NODE  MAX. CHANGE        NODE
 ------------------------------------------------------------------------------------------------------------------------------------
  -0.10644E-10,        191

  MAXIMUM CHANGE FOR CLN NODE AT EACH ITERATION:
   MAX. CHANGE    CLN-CELL  MAX. CHANGE    CLN-CELL  MAX. CHANGE    CLN-CELL  MAX. CHANGE    CLN-CELL  MAX. CHANGE    CLN-CELL
 ------------------------------------------------------------------------------------------------------------------------------------
  -0.12210E-08,          1
     TRANSPORT SOLUTION COMPLETE FOR COMPONENT SPECIES NUMBER    1
     ------------------------------------------------------------
 UBUDSVU SAVING "    MASS STORAGE" ON UNIT 145 AT TIME STEP      2, STRESS PERIOD     15
 UBUDSVU SAVING "CLN MASS STORAGE" ON UNIT 145 AT TIME STEP      2, STRESS PERIOD     15
 UBUDSVU SAVING "CNST H MASS FLUX" ON UNIT 145 AT TIME STEP      2, STRESS PERIOD     15
 UBUDSVU SAVING "  WELL MASS FLUX" ON UNIT 145 AT TIME STEP      2, STRESS PERIOD     15

 TRANSPORT SOLUTION COMPLETE FOR ALL SPECIES, SORTING OUTPUT FOR CONCENTRATIONS AND MASS BALANCE
 ----------------------------------------------------------------------------------------------------
     TRANSPORT OUTPUT FOR COMPONENT SPECIES NUMBER    1
     ------------------------------------------------------------

 CONC WILL BE SAVED ON UNIT  132 AT END OF TIME STEP        2, STRESS PERIOD       15

 CLN CONC WILL BE SAVED ON UNIT  188 AT END OF TIME STEP   2, STRESS PERIOD   15
1
  VOLUMETRIC BUDGET FOR ENTIRE MODEL AT END OF TIME STEP       2 IN STRESS PERIOD      15
  ---------------------------------------------------------------------------------------

     CUMULATIVE VOLUMES      L**3       RATES FOR THIS TIME STEP      L**3/T
     ------------------                 ------------------------

           IN:                                      IN:
           ---                                      ---
        MASS STORAGE =         211.2713          MASS STORAGE =           0.5000
    CNST H MASS FLUX =           0.0000      CNST H MASS FLUX =           0.0000
      WELL MASS FLUX =           0.0000        WELL MASS FLUX =           0.0000

            TOTAL IN =         211.2713              TOTAL IN =           0.5000

          OUT:                                     OUT:
          ----                                     ----
        MASS STORAGE =           0.2827          MASS STORAGE =       5.6519E-10
    CNST H MASS FLUX =           0.0000      CNST H MASS FLUX =           0.0000
      WELL MASS FLUX =         210.9885        WELL MASS FLUX =           0.5000

           TOTAL OUT =         211.2713             TOTAL OUT =           0.5000

            IN - OUT =       3.0832E-10              IN - OUT =      -5.6519E-10

 PERCENT DISCREPANCY =           0.00     PERCENT DISCREPANCY =          -0.00






          TIME SUMMARY AT END OF TIME STEP         2 IN STRESS PERIOD        15
                    SECONDS     MINUTES      HOURS       DAYS        YEARS
                    -----------------------------------------------------------
   TIME STEP LENGTH 1.19821E+05  1997.0      33.284      1.3868     3.79690E-03
 STRESS PERIOD TIME 2.19672E+05  3661.2      61.020      2.5425     6.96099E-03
         TOTAL TIME 3.65077E+07 6.08461E+05  10141.      422.54      1.1569    
1
 -------------------------------------------------------------------------------------
 
 SOLVING FOR HEAD 

 Outer-Iteration  Inner-Iteration  Backtracking  Number of        Incoming       Outgoing  Maximum HeadChange      Maximum Head Change
     Number           Count           Flag       Backtracks       Residual       Residual           Value              Location
        1                             0             0          0.365378E-01     0.365378E-01
        1                5                                                                       -0.751322E-01               400           GWF-node number
        1                5                                                                       -0.708516E-01                 2           CLN-node number
        2                             0             0          0.630353E-08     0.630353E-08
        2                1                                                                       -0.569931E-07               190           GWF-node number
        2                1                                                                       -0.136786E-06                 2           CLN-node number
     2 CALLS TO SPARSE MATRIX SOLVER PACKAGE  IN FLOW TIME STEP       3 STRESS PERIOD      15

 TOTAL OF       2OUTER ITERATIONS
  MAXIMUM CHANGE FOR EACH ITERATION:
   MAX. CHANGE        NODE  MAX. CHANGE        NODE  MAX. CHANGE        NODE  MAX. CHANGE        NODE  MAX. CHANGE        NODE
 ------------------------------------------------------------------------------------------------------------------------------------
  -0.75132E-01,        400 -0.56993E-07,        190

  MAXIMUM CHANGE FOR CLN NODE AT EACH ITERATION:
   MAX. CHANGE    CLN-CELL  MAX. CHANGE    CLN-CELL  MAX. CHANGE    CLN-CELL  MAX. CHANGE    CLN-CELL  MAX. CHANGE    CLN-CELL
 ------------------------------------------------------------------------------------------------------------------------------------
  -0.70852E-01,          2 -0.13679E-06,          2

 HEAD/DRAWDOWN PRINTOUT FLAG = 1     TOTAL BUDGET PRINTOUT FLAG = 1
 CELL-BY-CELL FLOW TERM FLAG = 1
 CONCENTRATION PRINTOUT FLAG = 1

 OUTPUT FLAGS FOR ALL LAYERS ARE THE SAME:
   HEAD    DRAWDOWN  HEAD  DRAWDOWN    CONC    CONC
 PRINTOUT  PRINTOUT  SAVE    SAVE    PRINTOUT  SAVE
 ---------------------------------------------------
     0         0       1       1       0       1
 UBUDSVU SAVING "         STORAGE" ON UNIT  50 AT TIME STEP      3, STRESS PERIOD     15
 UBUDSV SAVING "     CLN STORAGE" ON UNIT 144 AT TIME STEP      3, STRESS PERIOD      15
 UBUDSVU SAVING "   CONSTANT HEAD" ON UNIT  50 AT TIME STEP      3, STRESS PERIOD     15
 UBUDSVU SAVING "   FLOW JA FACE " ON UNIT  50 AT TIME STEP      3, STRESS PERIOD     15
 UBUDSVU SAVING "             CLN" ON UNIT  50 AT TIME STEP      3, STRESS PERIOD     15
 UBUDSVU SAVING "  CLN CONST HEAD" ON UNIT 144 AT TIME STEP      3, STRESS PERIOD     15
 UBUDSVU SAVING "   FLOW CLN FACE" ON UNIT 144 AT TIME STEP      3, STRESS PERIOD     15
 UBUDSVU SAVING "             GWF" ON UNIT 144 AT TIME STEP      3, STRESS PERIOD     15
 UBUDSVU SAVING "           WELLS" ON UNIT  50 AT TIME STEP      3, STRESS PERIOD     15
 UBUDSVU SAVING "           WELLS" ON UNIT 144 AT TIME STEP      3, STRESS PERIOD     15

 HEAD WILL BE SAVED ON UNIT       30 AT END OF TIME STEP        3, STRESS PERIOD       15

 DRAWDOWN WILL BE SAVED ON UNIT   31 AT END OF TIME STEP   3, STRESS PERIOD   15

 CLN HEAD WILL BE SAVED ON UNIT   77 AT END OF TIME STEP   3, STRESS PERIOD   15
1
  VOLUMETRIC BUDGET FOR ENTIRE MODEL AT END OF TIME STEP       3 IN STRESS PERIOD      15
  ---------------------------------------------------------------------------------------

     CUMULATIVE VOLUMES      L**3       RATES FOR THIS TIME STEP      L**3/T
     ------------------                 ------------------------

           IN:                                      IN:
           ---                                      ---
             STORAGE =        2120.9564               STORAGE =           4.9970
         CLN STORAGE =       7.6943E-02           CLN STORAGE =       3.0094E-03
       CONSTANT HEAD =           0.0000         CONSTANT HEAD =           0.0000
      CLN CONST HEAD =           0.0000        CLN CONST HEAD =           0.0000
               WELLS =           0.0000                 WELLS =           0.0000

            TOTAL IN =        2121.0334              TOTAL IN =           5.0000

          OUT:                                     OUT:
          ----                                     ----
             STORAGE =           0.0000               STORAGE =           0.0000
         CLN STORAGE =           0.0000           CLN STORAGE =           0.0000
       CONSTANT HEAD =           0.0000         CONSTANT HEAD =           0.0000
      CLN CONST HEAD =           0.0000        CLN CONST HEAD =           0.0000
               WELLS =        2121.0333                 WELLS =           5.0000

           TOTAL OUT =        2121.0333             TOTAL OUT =           5.0000

            IN - OUT =       2.0055E-05              IN - OUT =       3.5980E-08

 PERCENT DISCREPANCY =           0.00     PERCENT DISCREPANCY =           0.00






          TIME SUMMARY AT END OF TIME STEP         3 IN STRESS PERIOD        15
                    SECONDS     MINUTES      HOURS       DAYS        YEARS
                    -----------------------------------------------------------
   TIME STEP LENGTH 1.43785E+05  2396.4      39.940      1.6642     4.55628E-03
 STRESS PERIOD TIME 3.63458E+05  6057.6      100.96      4.2067     1.15173E-02
         TOTAL TIME 3.66515E+07 6.10858E+05  10181.      424.21      1.1614    
1
 ------------------------------------------------------------------------------------------------------------
 
 SOLVING FOR TRANSPORT 

 ------------------------------------------------------------------------------------------------------------------------
     1 CALLS TO SPARSE MATRIX SOLVER PACKAGE IN TRANSPORT TIME STEP       3 STRESS PERIOD      15 SPECIES  1

 TOTAL OF       1OUTER ITERATIONS
  MAXIMUM CHANGE FOR EACH ITERATION:
   MAX. CHANGE        NODE  MAX. CHANGE        NODE  MAX. CHANGE        NODE  MAX. CHANGE        NODE  MAX. CHANGE        NODE
 ------------------------------------------------------------------------------------------------------------------------------------
  -0.12740E-10,        191

  MAXIMUM CHANGE FOR CLN NODE AT EACH ITERATION:
   MAX. CHANGE    CLN-CELL  MAX. CHANGE    CLN-CELL  MAX. CHANGE    CLN-CELL  MAX. CHANGE    CLN-CELL  MAX. CHANGE    CLN-CELL
 ------------------------------------------------------------------------------------------------------------------------------------
   0.39261E-09,          1
     TRANSPORT SOLUTION COMPLETE FOR COMPONENT SPECIES NUMBER    1
     ------------------------------------------------------------
 UBUDSVU SAVING "    MASS STORAGE" ON UNIT 145 AT TIME STEP      3, STRESS PERIOD     15
 UBUDSVU SAVING "CLN MASS STORAGE" ON UNIT 145 AT TIME STEP      3, STRESS PERIOD     15
 UBUDSVU SAVING "CNST H MASS FLUX" ON UNIT 145 AT TIME STEP      3, STRESS PERIOD     15
 UBUDSVU SAVING "  WELL MASS FLUX" ON UNIT 145 AT TIME STEP      3, STRESS PERIOD     15

 TRANSPORT SOLUTION COMPLETE FOR ALL SPECIES, SORTING OUTPUT FOR CONCENTRATIONS AND MASS BALANCE
 ----------------------------------------------------------------------------------------------------
     TRANSPORT OUTPUT FOR COMPONENT SPECIES NUMBER    1
     ------------------------------------------------------------

 CONC WILL BE SAVED ON UNIT  132 AT END OF TIME STEP        3, STRESS PERIOD       15

 CLN CONC WILL BE SAVED ON UNIT  188 AT END OF TIME STEP   3, STRESS PERIOD   15
1
  VOLUMETRIC BUDGET FOR ENTIRE MODEL AT END OF TIME STEP       3 IN STRESS PERIOD      15
  ---------------------------------------------------------------------------------------

     CUMULATIVE VOLUMES      L**3       RATES FOR THIS TIME STEP      L**3/T
     ------------------                 ------------------------

           IN:                                      IN:
           ---                                      ---
        MASS STORAGE =         212.1033          MASS STORAGE =           0.5000
    CNST H MASS FLUX =           0.0000      CNST H MASS FLUX =           0.0000
      WELL MASS FLUX =           0.0000        WELL MASS FLUX =           0.0000

            TOTAL IN =         212.1033              TOTAL IN =           0.5000

          OUT:                                     OUT:
          ----                                     ----
        MASS STORAGE =           0.2827          MASS STORAGE =           0.0000
    CNST H MASS FLUX =           0.0000      CNST H MASS FLUX =           0.0000
      WELL MASS FLUX =         211.8206        WELL MASS FLUX =           0.5000

           TOTAL OUT =         212.1033             TOTAL OUT =           0.5000

            IN - OUT =       3.0604E-10              IN - OUT =           0.0000

 PERCENT DISCREPANCY =           0.00     PERCENT DISCREPANCY =           0.00






          TIME SUMMARY AT END OF TIME STEP         3 IN STRESS PERIOD        15
                    SECONDS     MINUTES      HOURS       DAYS        YEARS
                    -----------------------------------------------------------
   TIME STEP LENGTH 1.43785E+05  2396.4      39.940      1.6642     4.55628E-03
 STRESS PERIOD TIME 3.63458E+05  6057.6      100.96      4.2067     1.15173E-02
         TOTAL TIME 3.66515E+07 6.10858E+05  10181.      424.21      1.1614    
1
 -------------------------------------------------------------------------------------
 
 SOLVING FOR HEAD 

 Outer-Iteration  Inner-Iteration  Backtracking  Number of        Incoming       Outgoing  Maximum HeadChange      Maximum Head Change
     Number           Count           Flag       Backtracks       Residual       Residual           Value              Location
        1                             0             0          0.365079E-01     0.365079E-01
        1                5                                                                       -0.900787E-01               400           GWF-node number
        1                5                                                                       -0.849672E-01                 3           CLN-node number
        2                             0             0          0.131994E-07     0.131994E-07
        2                1                                                                        0.441755E-07               470           GWF-node number
        2                1                                                                       -0.174634E-07                 3           CLN-node number
     2 CALLS TO SPARSE MATRIX SOLVER PACKAGE  IN FLOW TIME STEP       4 STRESS PERIOD      15

 TOTAL OF       2OUTER ITERATIONS
  MAXIMUM CHANGE FOR EACH ITERATION:
   MAX. CHANGE        NODE  MAX. CHANGE        NODE  MAX. CHANGE        NODE  MAX. CHANGE        NODE  MAX. CHANGE        NODE
 ------------------------------------------------------------------------------------------------------------------------------------
  -0.90079E-01,        400  0.44175E-07,        470

  MAXIMUM CHANGE FOR CLN NODE AT EACH ITERATION:
   MAX. CHANGE    CLN-CELL  MAX. CHANGE    CLN-CELL  MAX. CHANGE    CLN-CELL  MAX. CHANGE    CLN-CELL  MAX. CHANGE    CLN-CELL
 ------------------------------------------------------------------------------------------------------------------------------------
  -0.84967E-01,          3 -0.17463E-07,          3

 HEAD/DRAWDOWN PRINTOUT FLAG = 1     TOTAL BUDGET PRINTOUT FLAG = 1
 CELL-BY-CELL FLOW TERM FLAG = 1
 CONCENTRATION PRINTOUT FLAG = 1

 OUTPUT FLAGS FOR ALL LAYERS ARE THE SAME:
   HEAD    DRAWDOWN  HEAD  DRAWDOWN    CONC    CONC
 PRINTOUT  PRINTOUT  SAVE    SAVE    PRINTOUT  SAVE
 ---------------------------------------------------
     0         0       1       1       0       1
 UBUDSVU SAVING "         STORAGE" ON UNIT  50 AT TIME STEP      4, STRESS PERIOD     15
 UBUDSV SAVING "     CLN STORAGE" ON UNIT 144 AT TIME STEP      4, STRESS PERIOD      15
 UBUDSVU SAVING "   CONSTANT HEAD" ON UNIT  50 AT TIME STEP      4, STRESS PERIOD     15
 UBUDSVU SAVING "   FLOW JA FACE " ON UNIT  50 AT TIME STEP      4, STRESS PERIOD     15
 UBUDSVU SAVING "             CLN" ON UNIT  50 AT TIME STEP      4, STRESS PERIOD     15
 UBUDSVU SAVING "  CLN CONST HEAD" ON UNIT 144 AT TIME STEP      4, STRESS PERIOD     15
 UBUDSVU SAVING "   FLOW CLN FACE" ON UNIT 144 AT TIME STEP      4, STRESS PERIOD     15
 UBUDSVU SAVING "             GWF" ON UNIT 144 AT TIME STEP      4, STRESS PERIOD     15
 UBUDSVU SAVING "           WELLS" ON UNIT  50 AT TIME STEP      4, STRESS PERIOD     15
 UBUDSVU SAVING "           WELLS" ON UNIT 144 AT TIME STEP      4, STRESS PERIOD     15

 HEAD WILL BE SAVED ON UNIT       30 AT END OF TIME STEP        4, STRESS PERIOD       15

 DRAWDOWN WILL BE SAVED ON UNIT   31 AT END OF TIME STEP   4, STRESS PERIOD   15

 CLN HEAD WILL BE SAVED ON UNIT   77 AT END OF TIME STEP   4, STRESS PERIOD   15
1
  VOLUMETRIC BUDGET FOR ENTIRE MODEL AT END OF TIME STEP       4 IN STRESS PERIOD      15
  ---------------------------------------------------------------------------------------

     CUMULATIVE VOLUMES      L**3       RATES FOR THIS TIME STEP      L**3/T
     ------------------                 ------------------------

           IN:                                      IN:
           ---                                      ---
             STORAGE =        2130.9355               STORAGE =           4.9970
         CLN STORAGE =       8.2949E-02           CLN STORAGE =       3.0075E-03
       CONSTANT HEAD =           0.0000         CONSTANT HEAD =           0.0000
      CLN CONST HEAD =           0.0000        CLN CONST HEAD =           0.0000
               WELLS =           0.0000                 WELLS =           0.0000

            TOTAL IN =        2131.0185              TOTAL IN =           5.0000

          OUT:                                     OUT:
          ----                                     ----
             STORAGE =           0.0000               STORAGE =           0.0000
         CLN STORAGE =           0.0000           CLN STORAGE =           0.0000
       CONSTANT HEAD =           0.0000         CONSTANT HEAD =           0.0000
      CLN CONST HEAD =           0.0000        CLN CONST HEAD =           0.0000
               WELLS =        2131.0184                 WELLS =           5.0000

           TOTAL OUT =        2131.0184             TOTAL OUT =           5.0000

            IN - OUT =       2.0118E-05              IN - OUT =       3.1461E-08

 PERCENT DISCREPANCY =           0.00     PERCENT DISCREPANCY =           0.00






          TIME SUMMARY AT END OF TIME STEP         4 IN STRESS PERIOD        15
                    SECONDS     MINUTES      HOURS       DAYS        YEARS
                    -----------------------------------------------------------
   TIME STEP LENGTH 1.72542E+05  2875.7      47.928      1.9970     5.46754E-03
 STRESS PERIOD TIME 5.36000E+05  8933.3      148.89      6.2037     1.69848E-02
         TOTAL TIME 3.68240E+07 6.13733E+05  10229.      426.20      1.1669    
1
 ------------------------------------------------------------------------------------------------------------
 
 SOLVING FOR TRANSPORT 

 ------------------------------------------------------------------------------------------------------------------------
     1 CALLS TO SPARSE MATRIX SOLVER PACKAGE IN TRANSPORT TIME STEP       4 STRESS PERIOD      15 SPECIES  1

 TOTAL OF       1OUTER ITERATIONS
  MAXIMUM CHANGE FOR EACH ITERATION:
   MAX. CHANGE        NODE  MAX. CHANGE        NODE  MAX. CHANGE        NODE  MAX. CHANGE        NODE  MAX. CHANGE        NODE
 ------------------------------------------------------------------------------------------------------------------------------------
  -0.61615E-11,        191

  MAXIMUM CHANGE FOR CLN NODE AT EACH ITERATION:
   MAX. CHANGE    CLN-CELL  MAX. CHANGE    CLN-CELL  MAX. CHANGE    CLN-CELL  MAX. CHANGE    CLN-CELL  MAX. CHANGE    CLN-CELL
 ------------------------------------------------------------------------------------------------------------------------------------
   0.97592E-09,          1
     TRANSPORT SOLUTION COMPLETE FOR COMPONENT SPECIES NUMBER    1
     ------------------------------------------------------------
 UBUDSVU SAVING "    MASS STORAGE" ON UNIT 145 AT TIME STEP      4, STRESS PERIOD     15
 UBUDSVU SAVING "CLN MASS STORAGE" ON UNIT 145 AT TIME STEP      4, STRESS PERIOD     15
 UBUDSVU SAVING "CNST H MASS FLUX" ON UNIT 145 AT TIME STEP      4, STRESS PERIOD     15
 UBUDSVU SAVING "  WELL MASS FLUX" ON UNIT 145 AT TIME STEP      4, STRESS PERIOD     15

 TRANSPORT SOLUTION COMPLETE FOR ALL SPECIES, SORTING OUTPUT FOR CONCENTRATIONS AND MASS BALANCE
 ----------------------------------------------------------------------------------------------------
     TRANSPORT OUTPUT FOR COMPONENT SPECIES NUMBER    1
     ------------------------------------------------------------

 CONC WILL BE SAVED ON UNIT  132 AT END OF TIME STEP        4, STRESS PERIOD       15

 CLN CONC WILL BE SAVED ON UNIT  188 AT END OF TIME STEP   4, STRESS PERIOD   15
1
  VOLUMETRIC BUDGET FOR ENTIRE MODEL AT END OF TIME STEP       4 IN STRESS PERIOD      15
  ---------------------------------------------------------------------------------------

     CUMULATIVE VOLUMES      L**3       RATES FOR THIS TIME STEP      L**3/T
     ------------------                 ------------------------

           IN:                                      IN:
           ---                                      ---
        MASS STORAGE =         213.1019          MASS STORAGE =           0.5000
    CNST H MASS FLUX =           0.0000      CNST H MASS FLUX =           0.0000
      WELL MASS FLUX =           0.0000        WELL MASS FLUX =           0.0000

            TOTAL IN =         213.1019              TOTAL IN =           0.5000

          OUT:                                     OUT:
          ----                                     ----
        MASS STORAGE =           0.2827          MASS STORAGE =           0.0000
    CNST H MASS FLUX =           0.0000      CNST H MASS FLUX =           0.0000
      WELL MASS FLUX =         212.8191        WELL MASS FLUX =           0.5000

           TOTAL OUT =         213.1019             TOTAL OUT =           0.5000

            IN - OUT =       3.0485E-10              IN - OUT =           0.0000

 PERCENT DISCREPANCY =           0.00     PERCENT DISCREPANCY =           0.00






          TIME SUMMARY AT END OF TIME STEP         4 IN STRESS PERIOD        15
                    SECONDS     MINUTES      HOURS       DAYS        YEARS
                    -----------------------------------------------------------
   TIME STEP LENGTH 1.72542E+05  2875.7      47.928      1.9970     5.46754E-03
 STRESS PERIOD TIME 5.36000E+05  8933.3      148.89      6.2037     1.69848E-02
         TOTAL TIME 3.68240E+07 6.13733E+05  10229.      426.20      1.1669    
1
 -------------------------------------------------------------------------------------
 
 SOLVING FOR HEAD 

 Outer-Iteration  Inner-Iteration  Backtracking  Number of        Incoming       Outgoing  Maximum HeadChange      Maximum Head Change
     Number           Count           Flag       Backtracks       Residual       Residual           Value              Location
        1                             0             0          0.364721E-01     0.364721E-01
        1                6                                                                       -0.107980                   400           GWF-node number
        1                6                                                                       -0.101879                     3           CLN-node number
        2                             0             0          0.278587E-07     0.278587E-07
        2                1                                                                       -0.627376E-07               190           GWF-node number
        2                1                                                                       -0.159905E-06                 3           CLN-node number
     2 CALLS TO SPARSE MATRIX SOLVER PACKAGE  IN FLOW TIME STEP       5 STRESS PERIOD      15

 TOTAL OF       2OUTER ITERATIONS
  MAXIMUM CHANGE FOR EACH ITERATION:
   MAX. CHANGE        NODE  MAX. CHANGE        NODE  MAX. CHANGE        NODE  MAX. CHANGE        NODE  MAX. CHANGE        NODE
 ------------------------------------------------------------------------------------------------------------------------------------
  -0.10798    ,        400 -0.62738E-07,        190

  MAXIMUM CHANGE FOR CLN NODE AT EACH ITERATION:
   MAX. CHANGE    CLN-CELL  MAX. CHANGE    CLN-CELL  MAX. CHANGE    CLN-CELL  MAX. CHANGE    CLN-CELL  MAX. CHANGE    CLN-CELL
 ------------------------------------------------------------------------------------------------------------------------------------
  -0.10188    ,          3 -0.15991E-06,          3

 HEAD/DRAWDOWN PRINTOUT FLAG = 1     TOTAL BUDGET PRINTOUT FLAG = 1
 CELL-BY-CELL FLOW TERM FLAG = 1
 CONCENTRATION PRINTOUT FLAG = 1

 OUTPUT FLAGS FOR ALL LAYERS ARE THE SAME:
   HEAD    DRAWDOWN  HEAD  DRAWDOWN    CONC    CONC
 PRINTOUT  PRINTOUT  SAVE    SAVE    PRINTOUT  SAVE
 ---------------------------------------------------
     0         0       1       1       0       1
 UBUDSVU SAVING "         STORAGE" ON UNIT  50 AT TIME STEP      5, STRESS PERIOD     15
 UBUDSV SAVING "     CLN STORAGE" ON UNIT 144 AT TIME STEP      5, STRESS PERIOD      15
 UBUDSVU SAVING "   CONSTANT HEAD" ON UNIT  50 AT TIME STEP      5, STRESS PERIOD     15
 UBUDSVU SAVING "   FLOW JA FACE " ON UNIT  50 AT TIME STEP      5, STRESS PERIOD     15
 UBUDSVU SAVING "             CLN" ON UNIT  50 AT TIME STEP      5, STRESS PERIOD     15
 UBUDSVU SAVING "  CLN CONST HEAD" ON UNIT 144 AT TIME STEP      5, STRESS PERIOD     15
 UBUDSVU SAVING "   FLOW CLN FACE" ON UNIT 144 AT TIME STEP      5, STRESS PERIOD     15
 UBUDSVU SAVING "             GWF" ON UNIT 144 AT TIME STEP      5, STRESS PERIOD     15
 UBUDSVU SAVING "           WELLS" ON UNIT  50 AT TIME STEP      5, STRESS PERIOD     15
 UBUDSVU SAVING "           WELLS" ON UNIT 144 AT TIME STEP      5, STRESS PERIOD     15

 HEAD WILL BE SAVED ON UNIT       30 AT END OF TIME STEP        5, STRESS PERIOD       15

 DRAWDOWN WILL BE SAVED ON UNIT   31 AT END OF TIME STEP   5, STRESS PERIOD   15

 CLN HEAD WILL BE SAVED ON UNIT   77 AT END OF TIME STEP   5, STRESS PERIOD   15
1
  VOLUMETRIC BUDGET FOR ENTIRE MODEL AT END OF TIME STEP       5 IN STRESS PERIOD      15
  ---------------------------------------------------------------------------------------

     CUMULATIVE VOLUMES      L**3       RATES FOR THIS TIME STEP      L**3/T
     ------------------                 ------------------------

           IN:                                      IN:
           ---                                      ---
             STORAGE =        2142.9104               STORAGE =           4.9970
         CLN STORAGE =       9.0151E-02           CLN STORAGE =       3.0051E-03
       CONSTANT HEAD =           0.0000         CONSTANT HEAD =           0.0000
      CLN CONST HEAD =           0.0000        CLN CONST HEAD =           0.0000
               WELLS =           0.0000                 WELLS =           0.0000

            TOTAL IN =        2143.0006              TOTAL IN =           5.0000

          OUT:                                     OUT:
          ----                                     ----
             STORAGE =           0.0000               STORAGE =           0.0000
         CLN STORAGE =           0.0000           CLN STORAGE =           0.0000
       CONSTANT HEAD =           0.0000         CONSTANT HEAD =           0.0000
      CLN CONST HEAD =           0.0000        CLN CONST HEAD =           0.0000
               WELLS =        2143.0006                 WELLS =           5.0000

           TOTAL OUT =        2143.0006             TOTAL OUT =           5.0000

            IN - OUT =       2.0210E-05              IN - OUT =       3.8303E-08

 PERCENT DISCREPANCY =           0.00     PERCENT DISCREPANCY =           0.00






          TIME SUMMARY AT END OF TIME STEP         5 IN STRESS PERIOD        15
                    SECONDS     MINUTES      HOURS       DAYS        YEARS
                    -----------------------------------------------------------
   TIME STEP LENGTH 2.07051E+05  3450.8      57.514      2.3964     6.56105E-03
 STRESS PERIOD TIME 7.43051E+05  12384.      206.40      8.6001     2.35459E-02
         TOTAL TIME 3.70310E+07 6.17184E+05  10286.      428.60      1.1734    
1
 ------------------------------------------------------------------------------------------------------------
 
 SOLVING FOR TRANSPORT 

 ------------------------------------------------------------------------------------------------------------------------
     1 CALLS TO SPARSE MATRIX SOLVER PACKAGE IN TRANSPORT TIME STEP       5 STRESS PERIOD      15 SPECIES  1

 TOTAL OF       1OUTER ITERATIONS
  MAXIMUM CHANGE FOR EACH ITERATION:
   MAX. CHANGE        NODE  MAX. CHANGE        NODE  MAX. CHANGE        NODE  MAX. CHANGE        NODE  MAX. CHANGE        NODE
 ------------------------------------------------------------------------------------------------------------------------------------
  -0.20857E-10,        191

  MAXIMUM CHANGE FOR CLN NODE AT EACH ITERATION:
   MAX. CHANGE    CLN-CELL  MAX. CHANGE    CLN-CELL  MAX. CHANGE    CLN-CELL  MAX. CHANGE    CLN-CELL  MAX. CHANGE    CLN-CELL
 ------------------------------------------------------------------------------------------------------------------------------------
  -0.19327E-08,          1
     TRANSPORT SOLUTION COMPLETE FOR COMPONENT SPECIES NUMBER    1
     ------------------------------------------------------------
 UBUDSVU SAVING "    MASS STORAGE" ON UNIT 145 AT TIME STEP      5, STRESS PERIOD     15
 UBUDSVU SAVING "CLN MASS STORAGE" ON UNIT 145 AT TIME STEP      5, STRESS PERIOD     15
 UBUDSVU SAVING "CNST H MASS FLUX" ON UNIT 145 AT TIME STEP      5, STRESS PERIOD     15
 UBUDSVU SAVING "  WELL MASS FLUX" ON UNIT 145 AT TIME STEP      5, STRESS PERIOD     15

 TRANSPORT SOLUTION COMPLETE FOR ALL SPECIES, SORTING OUTPUT FOR CONCENTRATIONS AND MASS BALANCE
 ----------------------------------------------------------------------------------------------------
     TRANSPORT OUTPUT FOR COMPONENT SPECIES NUMBER    1
     ------------------------------------------------------------

 CONC WILL BE SAVED ON UNIT  132 AT END OF TIME STEP        5, STRESS PERIOD       15

 CLN CONC WILL BE SAVED ON UNIT  188 AT END OF TIME STEP   5, STRESS PERIOD   15
1
  VOLUMETRIC BUDGET FOR ENTIRE MODEL AT END OF TIME STEP       5 IN STRESS PERIOD      15
  ---------------------------------------------------------------------------------------

     CUMULATIVE VOLUMES      L**3       RATES FOR THIS TIME STEP      L**3/T
     ------------------                 ------------------------

           IN:                                      IN:
           ---                                      ---
        MASS STORAGE =         214.3001          MASS STORAGE =           0.5000
    CNST H MASS FLUX =           0.0000      CNST H MASS FLUX =           0.0000
      WELL MASS FLUX =           0.0000        WELL MASS FLUX =           0.0000

            TOTAL IN =         214.3001              TOTAL IN =           0.5000

          OUT:                                     OUT:
          ----                                     ----
        MASS STORAGE =           0.2827          MASS STORAGE =       4.9438E-10
    CNST H MASS FLUX =           0.0000      CNST H MASS FLUX =           0.0000
      WELL MASS FLUX =         214.0173        WELL MASS FLUX =           0.5000

           TOTAL OUT =         214.3001             TOTAL OUT =           0.5000

            IN - OUT =       2.9999E-10              IN - OUT =      -4.9438E-10

 PERCENT DISCREPANCY =           0.00     PERCENT DISCREPANCY =          -0.00






          TIME SUMMARY AT END OF TIME STEP         5 IN STRESS PERIOD        15
                    SECONDS     MINUTES      HOURS       DAYS        YEARS
                    -----------------------------------------------------------
   TIME STEP LENGTH 2.07051E+05  3450.8      57.514      2.3964     6.56105E-03
 STRESS PERIOD TIME 7.43051E+05  12384.      206.40      8.6001     2.35459E-02
         TOTAL TIME 3.70310E+07 6.17184E+05  10286.      428.60      1.1734    
1
 -------------------------------------------------------------------------------------
 
 SOLVING FOR HEAD 

 Outer-Iteration  Inner-Iteration  Backtracking  Number of        Incoming       Outgoing  Maximum HeadChange      Maximum Head Change
     Number           Count           Flag       Backtracks       Residual       Residual           Value              Location
        1                             0             0          0.364295E-01     0.364295E-01
        1                6                                                                       -0.129413                   400           GWF-node number
        1                6                                                                       -0.122134                     2           CLN-node number
        2                             0             0          0.587773E-07     0.587773E-07
        2                1                                                                        0.233260E-07               190           GWF-node number
        2                1                                                                        0.636933E-07                 1           CLN-node number
     2 CALLS TO SPARSE MATRIX SOLVER PACKAGE  IN FLOW TIME STEP       6 STRESS PERIOD      15

 TOTAL OF       2OUTER ITERATIONS
  MAXIMUM CHANGE FOR EACH ITERATION:
   MAX. CHANGE        NODE  MAX. CHANGE        NODE  MAX. CHANGE        NODE  MAX. CHANGE        NODE  MAX. CHANGE        NODE
 ------------------------------------------------------------------------------------------------------------------------------------
  -0.12941    ,        400  0.23326E-07,        190

  MAXIMUM CHANGE FOR CLN NODE AT EACH ITERATION:
   MAX. CHANGE    CLN-CELL  MAX. CHANGE    CLN-CELL  MAX. CHANGE    CLN-CELL  MAX. CHANGE    CLN-CELL  MAX. CHANGE    CLN-CELL
 ------------------------------------------------------------------------------------------------------------------------------------
  -0.12213    ,          2  0.63693E-07,          1

 HEAD/DRAWDOWN PRINTOUT FLAG = 1     TOTAL BUDGET PRINTOUT FLAG = 1
 CELL-BY-CELL FLOW TERM FLAG = 1
 CONCENTRATION PRINTOUT FLAG = 1

 OUTPUT FLAGS FOR ALL LAYERS ARE THE SAME:
   HEAD    DRAWDOWN  HEAD  DRAWDOWN    CONC    CONC
 PRINTOUT  PRINTOUT  SAVE    SAVE    PRINTOUT  SAVE
 ---------------------------------------------------
     0         0       1       1       0       1
 UBUDSVU SAVING "         STORAGE" ON UNIT  50 AT TIME STEP      6, STRESS PERIOD     15
 UBUDSV SAVING "     CLN STORAGE" ON UNIT 144 AT TIME STEP      6, STRESS PERIOD      15
 UBUDSVU SAVING "   CONSTANT HEAD" ON UNIT  50 AT TIME STEP      6, STRESS PERIOD     15
 UBUDSVU SAVING "   FLOW JA FACE " ON UNIT  50 AT TIME STEP      6, STRESS PERIOD     15
 UBUDSVU SAVING "             CLN" ON UNIT  50 AT TIME STEP      6, STRESS PERIOD     15
 UBUDSVU SAVING "  CLN CONST HEAD" ON UNIT 144 AT TIME STEP      6, STRESS PERIOD     15
 UBUDSVU SAVING "   FLOW CLN FACE" ON UNIT 144 AT TIME STEP      6, STRESS PERIOD     15
 UBUDSVU SAVING "             GWF" ON UNIT 144 AT TIME STEP      6, STRESS PERIOD     15
 UBUDSVU SAVING "           WELLS" ON UNIT  50 AT TIME STEP      6, STRESS PERIOD     15
 UBUDSVU SAVING "           WELLS" ON UNIT 144 AT TIME STEP      6, STRESS PERIOD     15

 HEAD WILL BE SAVED ON UNIT       30 AT END OF TIME STEP        6, STRESS PERIOD       15

 DRAWDOWN WILL BE SAVED ON UNIT   31 AT END OF TIME STEP   6, STRESS PERIOD   15

 CLN HEAD WILL BE SAVED ON UNIT   77 AT END OF TIME STEP   6, STRESS PERIOD   15
1
  VOLUMETRIC BUDGET FOR ENTIRE MODEL AT END OF TIME STEP       6 IN STRESS PERIOD      15
  ---------------------------------------------------------------------------------------

     CUMULATIVE VOLUMES      L**3       RATES FOR THIS TIME STEP      L**3/T
     ------------------                 ------------------------

           IN:                                      IN:
           ---                                      ---
             STORAGE =        2157.2803               STORAGE =           4.9970
         CLN STORAGE =       9.8784E-02           CLN STORAGE =       3.0021E-03
       CONSTANT HEAD =           0.0000         CONSTANT HEAD =           0.0000
      CLN CONST HEAD =           0.0000        CLN CONST HEAD =           0.0000
               WELLS =           0.0000                 WELLS =           0.0000

            TOTAL IN =        2157.3791              TOTAL IN =           5.0000

          OUT:                                     OUT:
          ----                                     ----
             STORAGE =           0.0000               STORAGE =           0.0000
         CLN STORAGE =           0.0000           CLN STORAGE =           0.0000
       CONSTANT HEAD =           0.0000         CONSTANT HEAD =           0.0000
      CLN CONST HEAD =           0.0000        CLN CONST HEAD =           0.0000
               WELLS =        2157.3791                 WELLS =           5.0000

           TOTAL OUT =        2157.3791             TOTAL OUT =           5.0000

            IN - OUT =       2.0320E-05              IN - OUT =       3.8441E-08

 PERCENT DISCREPANCY =           0.00     PERCENT DISCREPANCY =           0.00






          TIME SUMMARY AT END OF TIME STEP         6 IN STRESS PERIOD        15
                    SECONDS     MINUTES      HOURS       DAYS        YEARS
                    -----------------------------------------------------------
   TIME STEP LENGTH 2.48461E+05  4141.0      69.017      2.8757     7.87326E-03
 STRESS PERIOD TIME 9.91512E+05  16525.      275.42      11.476     3.14191E-02
         TOTAL TIME 3.72795E+07 6.21325E+05  10355.      431.48      1.1813    
1
 ------------------------------------------------------------------------------------------------------------
 
 SOLVING FOR TRANSPORT 

 ------------------------------------------------------------------------------------------------------------------------
     1 CALLS TO SPARSE MATRIX SOLVER PACKAGE IN TRANSPORT TIME STEP       6 STRESS PERIOD      15 SPECIES  1

 TOTAL OF       1OUTER ITERATIONS
  MAXIMUM CHANGE FOR EACH ITERATION:
   MAX. CHANGE        NODE  MAX. CHANGE        NODE  MAX. CHANGE        NODE  MAX. CHANGE        NODE  MAX. CHANGE        NODE
 ------------------------------------------------------------------------------------------------------------------------------------
   0.15211E-11,        190

  MAXIMUM CHANGE FOR CLN NODE AT EACH ITERATION:
   MAX. CHANGE    CLN-CELL  MAX. CHANGE    CLN-CELL  MAX. CHANGE    CLN-CELL  MAX. CHANGE    CLN-CELL  MAX. CHANGE    CLN-CELL
 ------------------------------------------------------------------------------------------------------------------------------------
   0.16280E-08,          1
     TRANSPORT SOLUTION COMPLETE FOR COMPONENT SPECIES NUMBER    1
     ------------------------------------------------------------
 UBUDSVU SAVING "    MASS STORAGE" ON UNIT 145 AT TIME STEP      6, STRESS PERIOD     15
 UBUDSVU SAVING "CLN MASS STORAGE" ON UNIT 145 AT TIME STEP      6, STRESS PERIOD     15
 UBUDSVU SAVING "CNST H MASS FLUX" ON UNIT 145 AT TIME STEP      6, STRESS PERIOD     15
 UBUDSVU SAVING "  WELL MASS FLUX" ON UNIT 145 AT TIME STEP      6, STRESS PERIOD     15

 TRANSPORT SOLUTION COMPLETE FOR ALL SPECIES, SORTING OUTPUT FOR CONCENTRATIONS AND MASS BALANCE
 ----------------------------------------------------------------------------------------------------
     TRANSPORT OUTPUT FOR COMPONENT SPECIES NUMBER    1
     ------------------------------------------------------------

 CONC WILL BE SAVED ON UNIT  132 AT END OF TIME STEP        6, STRESS PERIOD       15

 CLN CONC WILL BE SAVED ON UNIT  188 AT END OF TIME STEP   6, STRESS PERIOD   15
1
  VOLUMETRIC BUDGET FOR ENTIRE MODEL AT END OF TIME STEP       6 IN STRESS PERIOD      15
  ---------------------------------------------------------------------------------------

     CUMULATIVE VOLUMES      L**3       RATES FOR THIS TIME STEP      L**3/T
     ------------------                 ------------------------

           IN:                                      IN:
           ---                                      ---
        MASS STORAGE =         215.7379          MASS STORAGE =           0.5000
    CNST H MASS FLUX =           0.0000      CNST H MASS FLUX =           0.0000
      WELL MASS FLUX =           0.0000        WELL MASS FLUX =           0.0000

            TOTAL IN =         215.7379              TOTAL IN =           0.5000

          OUT:                                     OUT:
          ----                                     ----
        MASS STORAGE =           0.2827          MASS STORAGE =           0.0000
    CNST H MASS FLUX =           0.0000      CNST H MASS FLUX =           0.0000
      WELL MASS FLUX =         215.4552        WELL MASS FLUX =           0.5000

           TOTAL OUT =         215.7379             TOTAL OUT =           0.5000

            IN - OUT =       3.0045E-10              IN - OUT =           0.0000

 PERCENT DISCREPANCY =           0.00     PERCENT DISCREPANCY =           0.00






          TIME SUMMARY AT END OF TIME STEP         6 IN STRESS PERIOD        15
                    SECONDS     MINUTES      HOURS       DAYS        YEARS
                    -----------------------------------------------------------
   TIME STEP LENGTH 2.48461E+05  4141.0      69.017      2.8757     7.87326E-03
 STRESS PERIOD TIME 9.91512E+05  16525.      275.42      11.476     3.14191E-02
         TOTAL TIME 3.72795E+07 6.21325E+05  10355.      431.48      1.1813    
1
 -------------------------------------------------------------------------------------
 
 SOLVING FOR HEAD 

 Outer-Iteration  Inner-Iteration  Backtracking  Number of        Incoming       Outgoing  Maximum HeadChange      Maximum Head Change
     Number           Count           Flag       Backtracks       Residual       Residual           Value              Location
        1                             0             0          0.363787E-01     0.363787E-01
        1                6                                                                       -0.155062                   400           GWF-node number
        1                6                                                                       -0.146384                     3           CLN-node number
        2                             0             0          0.124477E-06     0.124477E-06
        2                1                                                                        0.145447E-06               190           GWF-node number
        2                1                                                                        0.378325E-06                 1           CLN-node number
     2 CALLS TO SPARSE MATRIX SOLVER PACKAGE  IN FLOW TIME STEP       7 STRESS PERIOD      15

 TOTAL OF       2OUTER ITERATIONS
  MAXIMUM CHANGE FOR EACH ITERATION:
   MAX. CHANGE        NODE  MAX. CHANGE        NODE  MAX. CHANGE        NODE  MAX. CHANGE        NODE  MAX. CHANGE        NODE
 ------------------------------------------------------------------------------------------------------------------------------------
  -0.15506    ,        400  0.14545E-06,        190

  MAXIMUM CHANGE FOR CLN NODE AT EACH ITERATION:
   MAX. CHANGE    CLN-CELL  MAX. CHANGE    CLN-CELL  MAX. CHANGE    CLN-CELL  MAX. CHANGE    CLN-CELL  MAX. CHANGE    CLN-CELL
 ------------------------------------------------------------------------------------------------------------------------------------
  -0.14638    ,          3  0.37833E-06,          1

 HEAD/DRAWDOWN PRINTOUT FLAG = 1     TOTAL BUDGET PRINTOUT FLAG = 1
 CELL-BY-CELL FLOW TERM FLAG = 1
 CONCENTRATION PRINTOUT FLAG = 1

 OUTPUT FLAGS FOR ALL LAYERS ARE THE SAME:
   HEAD    DRAWDOWN  HEAD  DRAWDOWN    CONC    CONC
 PRINTOUT  PRINTOUT  SAVE    SAVE    PRINTOUT  SAVE
 ---------------------------------------------------
     0         0       1       1       0       1
 UBUDSVU SAVING "         STORAGE" ON UNIT  50 AT TIME STEP      7, STRESS PERIOD     15
 UBUDSV SAVING "     CLN STORAGE" ON UNIT 144 AT TIME STEP      7, STRESS PERIOD      15
 UBUDSVU SAVING "   CONSTANT HEAD" ON UNIT  50 AT TIME STEP      7, STRESS PERIOD     15
 UBUDSVU SAVING "   FLOW JA FACE " ON UNIT  50 AT TIME STEP      7, STRESS PERIOD     15
 UBUDSVU SAVING "             CLN" ON UNIT  50 AT TIME STEP      7, STRESS PERIOD     15
 UBUDSVU SAVING "  CLN CONST HEAD" ON UNIT 144 AT TIME STEP      7, STRESS PERIOD     15
 UBUDSVU SAVING "   FLOW CLN FACE" ON UNIT 144 AT TIME STEP      7, STRESS PERIOD     15
 UBUDSVU SAVING "             GWF" ON UNIT 144 AT TIME STEP      7, STRESS PERIOD     15
 UBUDSVU SAVING "           WELLS" ON UNIT  50 AT TIME STEP      7, STRESS PERIOD     15
 UBUDSVU SAVING "           WELLS" ON UNIT 144 AT TIME STEP      7, STRESS PERIOD     15

 HEAD WILL BE SAVED ON UNIT       30 AT END OF TIME STEP        7, STRESS PERIOD       15

 DRAWDOWN WILL BE SAVED ON UNIT   31 AT END OF TIME STEP   7, STRESS PERIOD   15

 CLN HEAD WILL BE SAVED ON UNIT   77 AT END OF TIME STEP   7, STRESS PERIOD   15
1
  VOLUMETRIC BUDGET FOR ENTIRE MODEL AT END OF TIME STEP       7 IN STRESS PERIOD      15
  ---------------------------------------------------------------------------------------

     CUMULATIVE VOLUMES      L**3       RATES FOR THIS TIME STEP      L**3/T
     ------------------                 ------------------------

           IN:                                      IN:
           ---                                      ---
             STORAGE =        2174.5242               STORAGE =           4.9970
         CLN STORAGE =           0.1091           CLN STORAGE =       2.9985E-03
       CONSTANT HEAD =           0.0000         CONSTANT HEAD =           0.0000
      CLN CONST HEAD =           0.0000        CLN CONST HEAD =           0.0000
               WELLS =           0.0000                 WELLS =           0.0000

            TOTAL IN =        2174.6334              TOTAL IN =           5.0000

          OUT:                                     OUT:
          ----                                     ----
             STORAGE =           0.0000               STORAGE =           0.0000
         CLN STORAGE =           0.0000           CLN STORAGE =           0.0000
       CONSTANT HEAD =           0.0000         CONSTANT HEAD =           0.0000
      CLN CONST HEAD =           0.0000        CLN CONST HEAD =           0.0000
               WELLS =        2174.6333                 WELLS =           5.0000

           TOTAL OUT =        2174.6333             TOTAL OUT =           5.0000

            IN - OUT =       2.0420E-05              IN - OUT =       2.8909E-08

 PERCENT DISCREPANCY =           0.00     PERCENT DISCREPANCY =           0.00






          TIME SUMMARY AT END OF TIME STEP         7 IN STRESS PERIOD        15
                    SECONDS     MINUTES      HOURS       DAYS        YEARS
                    -----------------------------------------------------------
   TIME STEP LENGTH 2.98153E+05  4969.2      82.820      3.4509     9.44791E-03
 STRESS PERIOD TIME 1.28967E+06  21494.      358.24      14.927     4.08670E-02
         TOTAL TIME 3.75777E+07 6.26294E+05  10438.      434.93      1.1908    
1
 ------------------------------------------------------------------------------------------------------------
 
 SOLVING FOR TRANSPORT 

 ------------------------------------------------------------------------------------------------------------------------
     1 CALLS TO SPARSE MATRIX SOLVER PACKAGE IN TRANSPORT TIME STEP       7 STRESS PERIOD      15 SPECIES  1

 TOTAL OF       1OUTER ITERATIONS
  MAXIMUM CHANGE FOR EACH ITERATION:
   MAX. CHANGE        NODE  MAX. CHANGE        NODE  MAX. CHANGE        NODE  MAX. CHANGE        NODE  MAX. CHANGE        NODE
 ------------------------------------------------------------------------------------------------------------------------------------
   0.45807E-10,        191

  MAXIMUM CHANGE FOR CLN NODE AT EACH ITERATION:
   MAX. CHANGE    CLN-CELL  MAX. CHANGE    CLN-CELL  MAX. CHANGE    CLN-CELL  MAX. CHANGE    CLN-CELL  MAX. CHANGE    CLN-CELL
 ------------------------------------------------------------------------------------------------------------------------------------
  -0.18867E-08,          2
     TRANSPORT SOLUTION COMPLETE FOR COMPONENT SPECIES NUMBER    1
     ------------------------------------------------------------
 UBUDSVU SAVING "    MASS STORAGE" ON UNIT 145 AT TIME STEP      7, STRESS PERIOD     15
 UBUDSVU SAVING "CLN MASS STORAGE" ON UNIT 145 AT TIME STEP      7, STRESS PERIOD     15
 UBUDSVU SAVING "CNST H MASS FLUX" ON UNIT 145 AT TIME STEP      7, STRESS PERIOD     15
 UBUDSVU SAVING "  WELL MASS FLUX" ON UNIT 145 AT TIME STEP      7, STRESS PERIOD     15

 TRANSPORT SOLUTION COMPLETE FOR ALL SPECIES, SORTING OUTPUT FOR CONCENTRATIONS AND MASS BALANCE
 ----------------------------------------------------------------------------------------------------
     TRANSPORT OUTPUT FOR COMPONENT SPECIES NUMBER    1
     ------------------------------------------------------------

 CONC WILL BE SAVED ON UNIT  132 AT END OF TIME STEP        7, STRESS PERIOD       15

 CLN CONC WILL BE SAVED ON UNIT  188 AT END OF TIME STEP   7, STRESS PERIOD   15
1
  VOLUMETRIC BUDGET FOR ENTIRE MODEL AT END OF TIME STEP       7 IN STRESS PERIOD      15
  ---------------------------------------------------------------------------------------

     CUMULATIVE VOLUMES      L**3       RATES FOR THIS TIME STEP      L**3/T
     ------------------                 ------------------------

           IN:                                      IN:
           ---                                      ---
        MASS STORAGE =         217.4633          MASS STORAGE =           0.5000
    CNST H MASS FLUX =           0.0000      CNST H MASS FLUX =           0.0000
      WELL MASS FLUX =           0.0000        WELL MASS FLUX =           0.0000

            TOTAL IN =         217.4633              TOTAL IN =           0.5000

          OUT:                                     OUT:
          ----                                     ----
        MASS STORAGE =           0.2827          MASS STORAGE =           0.0000
    CNST H MASS FLUX =           0.0000      CNST H MASS FLUX =           0.0000
      WELL MASS FLUX =         217.1806        WELL MASS FLUX =           0.5000

           TOTAL OUT =         217.4633             TOTAL OUT =           0.5000

            IN - OUT =       3.2114E-10              IN - OUT =           0.0000

 PERCENT DISCREPANCY =           0.00     PERCENT DISCREPANCY =           0.00






          TIME SUMMARY AT END OF TIME STEP         7 IN STRESS PERIOD        15
                    SECONDS     MINUTES      HOURS       DAYS        YEARS
                    -----------------------------------------------------------
   TIME STEP LENGTH 2.98153E+05  4969.2      82.820      3.4509     9.44791E-03
 STRESS PERIOD TIME 1.28967E+06  21494.      358.24      14.927     4.08670E-02
         TOTAL TIME 3.75777E+07 6.26294E+05  10438.      434.93      1.1908    
1
 -------------------------------------------------------------------------------------
 
 SOLVING FOR HEAD 

 Outer-Iteration  Inner-Iteration  Backtracking  Number of        Incoming       Outgoing  Maximum HeadChange      Maximum Head Change
     Number           Count           Flag       Backtracks       Residual       Residual           Value              Location
        1                             0             0          0.363184E-01     0.363184E-01
        1                6                                                                       -0.185743                   400           GWF-node number
        1                6                                                                       -0.175403                     2           CLN-node number
        2                             0             0          0.265162E-06     0.265162E-06
        2                1                                                                        0.130184E-06               416           GWF-node number
        2                1                                                                        0.299538E-06                 1           CLN-node number
     2 CALLS TO SPARSE MATRIX SOLVER PACKAGE  IN FLOW TIME STEP       8 STRESS PERIOD      15

 TOTAL OF       2OUTER ITERATIONS
  MAXIMUM CHANGE FOR EACH ITERATION:
   MAX. CHANGE        NODE  MAX. CHANGE        NODE  MAX. CHANGE        NODE  MAX. CHANGE        NODE  MAX. CHANGE        NODE
 ------------------------------------------------------------------------------------------------------------------------------------
  -0.18574    ,        400  0.13018E-06,        416

  MAXIMUM CHANGE FOR CLN NODE AT EACH ITERATION:
   MAX. CHANGE    CLN-CELL  MAX. CHANGE    CLN-CELL  MAX. CHANGE    CLN-CELL  MAX. CHANGE    CLN-CELL  MAX. CHANGE    CLN-CELL
 ------------------------------------------------------------------------------------------------------------------------------------
  -0.17540    ,          2  0.29954E-06,          1

 HEAD/DRAWDOWN PRINTOUT FLAG = 1     TOTAL BUDGET PRINTOUT FLAG = 1
 CELL-BY-CELL FLOW TERM FLAG = 1
 CONCENTRATION PRINTOUT FLAG = 1

 OUTPUT FLAGS FOR ALL LAYERS ARE THE SAME:
   HEAD    DRAWDOWN  HEAD  DRAWDOWN    CONC    CONC
 PRINTOUT  PRINTOUT  SAVE    SAVE    PRINTOUT  SAVE
 ---------------------------------------------------
     0         0       1       1       0       1
 UBUDSVU SAVING "         STORAGE" ON UNIT  50 AT TIME STEP      8, STRESS PERIOD     15
 UBUDSV SAVING "     CLN STORAGE" ON UNIT 144 AT TIME STEP      8, STRESS PERIOD      15
 UBUDSVU SAVING "   CONSTANT HEAD" ON UNIT  50 AT TIME STEP      8, STRESS PERIOD     15
 UBUDSVU SAVING "   FLOW JA FACE " ON UNIT  50 AT TIME STEP      8, STRESS PERIOD     15
 UBUDSVU SAVING "             CLN" ON UNIT  50 AT TIME STEP      8, STRESS PERIOD     15
 UBUDSVU SAVING "  CLN CONST HEAD" ON UNIT 144 AT TIME STEP      8, STRESS PERIOD     15
 UBUDSVU SAVING "   FLOW CLN FACE" ON UNIT 144 AT TIME STEP      8, STRESS PERIOD     15
 UBUDSVU SAVING "             GWF" ON UNIT 144 AT TIME STEP      8, STRESS PERIOD     15
 UBUDSVU SAVING "           WELLS" ON UNIT  50 AT TIME STEP      8, STRESS PERIOD     15
 UBUDSVU SAVING "           WELLS" ON UNIT 144 AT TIME STEP      8, STRESS PERIOD     15

 HEAD WILL BE SAVED ON UNIT       30 AT END OF TIME STEP        8, STRESS PERIOD       15

 DRAWDOWN WILL BE SAVED ON UNIT   31 AT END OF TIME STEP   8, STRESS PERIOD   15

 CLN HEAD WILL BE SAVED ON UNIT   77 AT END OF TIME STEP   8, STRESS PERIOD   15
1
  VOLUMETRIC BUDGET FOR ENTIRE MODEL AT END OF TIME STEP       8 IN STRESS PERIOD      15
  ---------------------------------------------------------------------------------------

     CUMULATIVE VOLUMES      L**3       RATES FOR THIS TIME STEP      L**3/T
     ------------------                 ------------------------

           IN:                                      IN:
           ---                                      ---
             STORAGE =        2195.2169               STORAGE =           4.9970
         CLN STORAGE =           0.1215           CLN STORAGE =       2.9941E-03
       CONSTANT HEAD =           0.0000         CONSTANT HEAD =           0.0000
      CLN CONST HEAD =           0.0000        CLN CONST HEAD =           0.0000
               WELLS =           0.0000                 WELLS =           0.0000

            TOTAL IN =        2195.3385              TOTAL IN =           5.0000

          OUT:                                     OUT:
          ----                                     ----
             STORAGE =           0.0000               STORAGE =           0.0000
         CLN STORAGE =           0.0000           CLN STORAGE =           0.0000
       CONSTANT HEAD =           0.0000         CONSTANT HEAD =           0.0000
      CLN CONST HEAD =           0.0000        CLN CONST HEAD =           0.0000
               WELLS =        2195.3384                 WELLS =           5.0000

           TOTAL OUT =        2195.3384             TOTAL OUT =           5.0000

            IN - OUT =       2.0573E-05              IN - OUT =       3.7003E-08

 PERCENT DISCREPANCY =           0.00     PERCENT DISCREPANCY =           0.00






          TIME SUMMARY AT END OF TIME STEP         8 IN STRESS PERIOD        15
                    SECONDS     MINUTES      HOURS       DAYS        YEARS
                    -----------------------------------------------------------
   TIME STEP LENGTH 3.57784E+05  5963.1      99.384      4.1410     1.13375E-02
 STRESS PERIOD TIME 1.64745E+06  27457.      457.62      19.068     5.22045E-02
         TOTAL TIME 3.79354E+07 6.32257E+05  10538.      439.07      1.2021    
1
 ------------------------------------------------------------------------------------------------------------
 
 SOLVING FOR TRANSPORT 

 ------------------------------------------------------------------------------------------------------------------------
     1 CALLS TO SPARSE MATRIX SOLVER PACKAGE IN TRANSPORT TIME STEP       8 STRESS PERIOD      15 SPECIES  1

 TOTAL OF       1OUTER ITERATIONS
  MAXIMUM CHANGE FOR EACH ITERATION:
   MAX. CHANGE        NODE  MAX. CHANGE        NODE  MAX. CHANGE        NODE  MAX. CHANGE        NODE  MAX. CHANGE        NODE
 ------------------------------------------------------------------------------------------------------------------------------------
   0.40844E-10,        191

  MAXIMUM CHANGE FOR CLN NODE AT EACH ITERATION:
   MAX. CHANGE    CLN-CELL  MAX. CHANGE    CLN-CELL  MAX. CHANGE    CLN-CELL  MAX. CHANGE    CLN-CELL  MAX. CHANGE    CLN-CELL
 ------------------------------------------------------------------------------------------------------------------------------------
   0.17468E-08,          2
     TRANSPORT SOLUTION COMPLETE FOR COMPONENT SPECIES NUMBER    1
     ------------------------------------------------------------
 UBUDSVU SAVING "    MASS STORAGE" ON UNIT 145 AT TIME STEP      8, STRESS PERIOD     15
 UBUDSVU SAVING "CLN MASS STORAGE" ON UNIT 145 AT TIME STEP      8, STRESS PERIOD     15
 UBUDSVU SAVING "CNST H MASS FLUX" ON UNIT 145 AT TIME STEP      8, STRESS PERIOD     15
 UBUDSVU SAVING "  WELL MASS FLUX" ON UNIT 145 AT TIME STEP      8, STRESS PERIOD     15

 TRANSPORT SOLUTION COMPLETE FOR ALL SPECIES, SORTING OUTPUT FOR CONCENTRATIONS AND MASS BALANCE
 ----------------------------------------------------------------------------------------------------
     TRANSPORT OUTPUT FOR COMPONENT SPECIES NUMBER    1
     ------------------------------------------------------------

 CONC WILL BE SAVED ON UNIT  132 AT END OF TIME STEP        8, STRESS PERIOD       15

 CLN CONC WILL BE SAVED ON UNIT  188 AT END OF TIME STEP   8, STRESS PERIOD   15
1
  VOLUMETRIC BUDGET FOR ENTIRE MODEL AT END OF TIME STEP       8 IN STRESS PERIOD      15
  ---------------------------------------------------------------------------------------

     CUMULATIVE VOLUMES      L**3       RATES FOR THIS TIME STEP      L**3/T
     ------------------                 ------------------------

           IN:                                      IN:
           ---                                      ---
        MASS STORAGE =         219.5339          MASS STORAGE =           0.5000
    CNST H MASS FLUX =           0.0000      CNST H MASS FLUX =           0.0000
      WELL MASS FLUX =           0.0000        WELL MASS FLUX =           0.0000

            TOTAL IN =         219.5339              TOTAL IN =           0.5000

          OUT:                                     OUT:
          ----                                     ----
        MASS STORAGE =           0.2827          MASS STORAGE =       2.4622E-10
    CNST H MASS FLUX =           0.0000      CNST H MASS FLUX =           0.0000
      WELL MASS FLUX =         219.2511        WELL MASS FLUX =           0.5000

           TOTAL OUT =         219.5339             TOTAL OUT =           0.5000

            IN - OUT =       3.5334E-10              IN - OUT =      -2.4622E-10

 PERCENT DISCREPANCY =           0.00     PERCENT DISCREPANCY =          -0.00






          TIME SUMMARY AT END OF TIME STEP         8 IN STRESS PERIOD        15
                    SECONDS     MINUTES      HOURS       DAYS        YEARS
                    -----------------------------------------------------------
   TIME STEP LENGTH 3.57784E+05  5963.1      99.384      4.1410     1.13375E-02
 STRESS PERIOD TIME 1.64745E+06  27457.      457.62      19.068     5.22045E-02
         TOTAL TIME 3.79354E+07 6.32257E+05  10538.      439.07      1.2021    
1
 -------------------------------------------------------------------------------------
 
 SOLVING FOR HEAD 

 Outer-Iteration  Inner-Iteration  Backtracking  Number of        Incoming       Outgoing  Maximum HeadChange      Maximum Head Change
     Number           Count           Flag       Backtracks       Residual       Residual           Value              Location
        1                             0             0          0.362467E-01     0.362467E-01
        1                6                                                                       -0.222419                   400           GWF-node number
        1                6                                                                       -0.210109                     3           CLN-node number
        2                             0             0          0.567357E-06     0.567357E-06
        2                1                                                                        0.355494E-06               416           GWF-node number
        2                1                                                                        0.285905E-06                 1           CLN-node number
     2 CALLS TO SPARSE MATRIX SOLVER PACKAGE  IN FLOW TIME STEP       9 STRESS PERIOD      15

 TOTAL OF       2OUTER ITERATIONS
  MAXIMUM CHANGE FOR EACH ITERATION:
   MAX. CHANGE        NODE  MAX. CHANGE        NODE  MAX. CHANGE        NODE  MAX. CHANGE        NODE  MAX. CHANGE        NODE
 ------------------------------------------------------------------------------------------------------------------------------------
  -0.22242    ,        400  0.35549E-06,        416

  MAXIMUM CHANGE FOR CLN NODE AT EACH ITERATION:
   MAX. CHANGE    CLN-CELL  MAX. CHANGE    CLN-CELL  MAX. CHANGE    CLN-CELL  MAX. CHANGE    CLN-CELL  MAX. CHANGE    CLN-CELL
 ------------------------------------------------------------------------------------------------------------------------------------
  -0.21011    ,          3  0.28591E-06,          1

 HEAD/DRAWDOWN PRINTOUT FLAG = 1     TOTAL BUDGET PRINTOUT FLAG = 1
 CELL-BY-CELL FLOW TERM FLAG = 1
 CONCENTRATION PRINTOUT FLAG = 1

 OUTPUT FLAGS FOR ALL LAYERS ARE THE SAME:
   HEAD    DRAWDOWN  HEAD  DRAWDOWN    CONC    CONC
 PRINTOUT  PRINTOUT  SAVE    SAVE    PRINTOUT  SAVE
 ---------------------------------------------------
     0         0       1       1       0       1
 UBUDSVU SAVING "         STORAGE" ON UNIT  50 AT TIME STEP      9, STRESS PERIOD     15
 UBUDSV SAVING "     CLN STORAGE" ON UNIT 144 AT TIME STEP      9, STRESS PERIOD      15
 UBUDSVU SAVING "   CONSTANT HEAD" ON UNIT  50 AT TIME STEP      9, STRESS PERIOD     15
 UBUDSVU SAVING "   FLOW JA FACE " ON UNIT  50 AT TIME STEP      9, STRESS PERIOD     15
 UBUDSVU SAVING "             CLN" ON UNIT  50 AT TIME STEP      9, STRESS PERIOD     15
 UBUDSVU SAVING "  CLN CONST HEAD" ON UNIT 144 AT TIME STEP      9, STRESS PERIOD     15
 UBUDSVU SAVING "   FLOW CLN FACE" ON UNIT 144 AT TIME STEP      9, STRESS PERIOD     15
 UBUDSVU SAVING "             GWF" ON UNIT 144 AT TIME STEP      9, STRESS PERIOD     15
 UBUDSVU SAVING "           WELLS" ON UNIT  50 AT TIME STEP      9, STRESS PERIOD     15
 UBUDSVU SAVING "           WELLS" ON UNIT 144 AT TIME STEP      9, STRESS PERIOD     15

 HEAD WILL BE SAVED ON UNIT       30 AT END OF TIME STEP        9, STRESS PERIOD       15

 DRAWDOWN WILL BE SAVED ON UNIT   31 AT END OF TIME STEP   9, STRESS PERIOD   15

 CLN HEAD WILL BE SAVED ON UNIT   77 AT END OF TIME STEP   9, STRESS PERIOD   15
1
  VOLUMETRIC BUDGET FOR ENTIRE MODEL AT END OF TIME STEP       9 IN STRESS PERIOD      15
  ---------------------------------------------------------------------------------------

     CUMULATIVE VOLUMES      L**3       RATES FOR THIS TIME STEP      L**3/T
     ------------------                 ------------------------

           IN:                                      IN:
           ---                                      ---
             STORAGE =        2220.0482               STORAGE =           4.9970
         CLN STORAGE =           0.1364           CLN STORAGE =       2.9887E-03
       CONSTANT HEAD =           0.0000         CONSTANT HEAD =           0.0000
      CLN CONST HEAD =           0.0000        CLN CONST HEAD =           0.0000
               WELLS =           0.0000                 WELLS =           0.0000

            TOTAL IN =        2220.1846              TOTAL IN =           5.0000

          OUT:                                     OUT:
          ----                                     ----
             STORAGE =           0.0000               STORAGE =           0.0000
         CLN STORAGE =           0.0000           CLN STORAGE =           0.0000
       CONSTANT HEAD =           0.0000         CONSTANT HEAD =           0.0000
      CLN CONST HEAD =           0.0000        CLN CONST HEAD =           0.0000
               WELLS =        2220.1846                 WELLS =           5.0000

           TOTAL OUT =        2220.1846             TOTAL OUT =           5.0000

            IN - OUT =       2.0650E-05              IN - OUT =       1.5463E-08

 PERCENT DISCREPANCY =           0.00     PERCENT DISCREPANCY =           0.00






          TIME SUMMARY AT END OF TIME STEP         9 IN STRESS PERIOD        15
                    SECONDS     MINUTES      HOURS       DAYS        YEARS
                    -----------------------------------------------------------
   TIME STEP LENGTH 4.29341E+05  7155.7      119.26      4.9692     1.36050E-02
 STRESS PERIOD TIME 2.07679E+06  34613.      576.89      24.037     6.58095E-02
         TOTAL TIME 3.83648E+07 6.39413E+05  10657.      444.04      1.2157    
1
 ------------------------------------------------------------------------------------------------------------
 
 SOLVING FOR TRANSPORT 

 ------------------------------------------------------------------------------------------------------------------------
     1 CALLS TO SPARSE MATRIX SOLVER PACKAGE IN TRANSPORT TIME STEP       9 STRESS PERIOD      15 SPECIES  1

 TOTAL OF       1OUTER ITERATIONS
  MAXIMUM CHANGE FOR EACH ITERATION:
   MAX. CHANGE        NODE  MAX. CHANGE        NODE  MAX. CHANGE        NODE  MAX. CHANGE        NODE  MAX. CHANGE        NODE
 ------------------------------------------------------------------------------------------------------------------------------------
   0.44270E-10,        191

  MAXIMUM CHANGE FOR CLN NODE AT EACH ITERATION:
   MAX. CHANGE    CLN-CELL  MAX. CHANGE    CLN-CELL  MAX. CHANGE    CLN-CELL  MAX. CHANGE    CLN-CELL  MAX. CHANGE    CLN-CELL
 ------------------------------------------------------------------------------------------------------------------------------------
  -0.90652E-09,          2
     TRANSPORT SOLUTION COMPLETE FOR COMPONENT SPECIES NUMBER    1
     ------------------------------------------------------------
 UBUDSVU SAVING "    MASS STORAGE" ON UNIT 145 AT TIME STEP      9, STRESS PERIOD     15
 UBUDSVU SAVING "CLN MASS STORAGE" ON UNIT 145 AT TIME STEP      9, STRESS PERIOD     15
 UBUDSVU SAVING "CNST H MASS FLUX" ON UNIT 145 AT TIME STEP      9, STRESS PERIOD     15
 UBUDSVU SAVING "  WELL MASS FLUX" ON UNIT 145 AT TIME STEP      9, STRESS PERIOD     15

 TRANSPORT SOLUTION COMPLETE FOR ALL SPECIES, SORTING OUTPUT FOR CONCENTRATIONS AND MASS BALANCE
 ----------------------------------------------------------------------------------------------------
     TRANSPORT OUTPUT FOR COMPONENT SPECIES NUMBER    1
     ------------------------------------------------------------

 CONC WILL BE SAVED ON UNIT  132 AT END OF TIME STEP        9, STRESS PERIOD       15

 CLN CONC WILL BE SAVED ON UNIT  188 AT END OF TIME STEP   9, STRESS PERIOD   15
1
  VOLUMETRIC BUDGET FOR ENTIRE MODEL AT END OF TIME STEP       9 IN STRESS PERIOD      15
  ---------------------------------------------------------------------------------------

     CUMULATIVE VOLUMES      L**3       RATES FOR THIS TIME STEP      L**3/T
     ------------------                 ------------------------

           IN:                                      IN:
           ---                                      ---
        MASS STORAGE =         222.0185          MASS STORAGE =           0.5000
    CNST H MASS FLUX =           0.0000      CNST H MASS FLUX =           0.0000
      WELL MASS FLUX =           0.0000        WELL MASS FLUX =           0.0000

            TOTAL IN =         222.0185              TOTAL IN =           0.5000

          OUT:                                     OUT:
          ----                                     ----
        MASS STORAGE =           0.2827          MASS STORAGE =       3.3955E-11
    CNST H MASS FLUX =           0.0000      CNST H MASS FLUX =           0.0000
      WELL MASS FLUX =         221.7357        WELL MASS FLUX =           0.5000

           TOTAL OUT =         222.0185             TOTAL OUT =           0.5000

            IN - OUT =       3.9094E-10              IN - OUT =      -3.3955E-11

 PERCENT DISCREPANCY =           0.00     PERCENT DISCREPANCY =          -0.00






          TIME SUMMARY AT END OF TIME STEP         9 IN STRESS PERIOD        15
                    SECONDS     MINUTES      HOURS       DAYS        YEARS
                    -----------------------------------------------------------
   TIME STEP LENGTH 4.29341E+05  7155.7      119.26      4.9692     1.36050E-02
 STRESS PERIOD TIME 2.07679E+06  34613.      576.89      24.037     6.58095E-02
         TOTAL TIME 3.83648E+07 6.39413E+05  10657.      444.04      1.2157    
1
 -------------------------------------------------------------------------------------
 
 SOLVING FOR HEAD 

 Outer-Iteration  Inner-Iteration  Backtracking  Number of        Incoming       Outgoing  Maximum HeadChange      Maximum Head Change
     Number           Count           Flag       Backtracks       Residual       Residual           Value              Location
        1                             0             0          0.361618E-01     0.361618E-01
        1                7                                                                       -0.266232                   400           GWF-node number
        1                7                                                                       -0.251593                     3           CLN-node number
        2                             0             0          0.122236E-05     0.122236E-05
        2                1                                                                        0.591633E-07               190           GWF-node number
        2                1                                                                        0.122804E-06                 1           CLN-node number
     2 CALLS TO SPARSE MATRIX SOLVER PACKAGE  IN FLOW TIME STEP      10 STRESS PERIOD      15

 TOTAL OF       2OUTER ITERATIONS
  MAXIMUM CHANGE FOR EACH ITERATION:
   MAX. CHANGE        NODE  MAX. CHANGE        NODE  MAX. CHANGE        NODE  MAX. CHANGE        NODE  MAX. CHANGE        NODE
 ------------------------------------------------------------------------------------------------------------------------------------
  -0.26623    ,        400  0.59163E-07,        190

  MAXIMUM CHANGE FOR CLN NODE AT EACH ITERATION:
   MAX. CHANGE    CLN-CELL  MAX. CHANGE    CLN-CELL  MAX. CHANGE    CLN-CELL  MAX. CHANGE    CLN-CELL  MAX. CHANGE    CLN-CELL
 ------------------------------------------------------------------------------------------------------------------------------------
  -0.25159    ,          3  0.12280E-06,          1

 HEAD/DRAWDOWN PRINTOUT FLAG = 1     TOTAL BUDGET PRINTOUT FLAG = 1
 CELL-BY-CELL FLOW TERM FLAG = 1
 CONCENTRATION PRINTOUT FLAG = 1

 OUTPUT FLAGS FOR ALL LAYERS ARE THE SAME:
   HEAD    DRAWDOWN  HEAD  DRAWDOWN    CONC    CONC
 PRINTOUT  PRINTOUT  SAVE    SAVE    PRINTOUT  SAVE
 ---------------------------------------------------
     0         0       1       1       0       1
 UBUDSVU SAVING "         STORAGE" ON UNIT  50 AT TIME STEP     10, STRESS PERIOD     15
 UBUDSV SAVING "     CLN STORAGE" ON UNIT 144 AT TIME STEP     10, STRESS PERIOD      15
 UBUDSVU SAVING "   CONSTANT HEAD" ON UNIT  50 AT TIME STEP     10, STRESS PERIOD     15
 UBUDSVU SAVING "   FLOW JA FACE " ON UNIT  50 AT TIME STEP     10, STRESS PERIOD     15
 UBUDSVU SAVING "             CLN" ON UNIT  50 AT TIME STEP     10, STRESS PERIOD     15
 UBUDSVU SAVING "  CLN CONST HEAD" ON UNIT 144 AT TIME STEP     10, STRESS PERIOD     15
 UBUDSVU SAVING "   FLOW CLN FACE" ON UNIT 144 AT TIME STEP     10, STRESS PERIOD     15
 UBUDSVU SAVING "             GWF" ON UNIT 144 AT TIME STEP     10, STRESS PERIOD     15
 UBUDSVU SAVING "           WELLS" ON UNIT  50 AT TIME STEP     10, STRESS PERIOD     15
 UBUDSVU SAVING "           WELLS" ON UNIT 144 AT TIME STEP     10, STRESS PERIOD     15

 HEAD WILL BE SAVED ON UNIT       30 AT END OF TIME STEP       10, STRESS PERIOD       15

 DRAWDOWN WILL BE SAVED ON UNIT   31 AT END OF TIME STEP  10, STRESS PERIOD   15

 CLN HEAD WILL BE SAVED ON UNIT   77 AT END OF TIME STEP  10, STRESS PERIOD   15
1
  VOLUMETRIC BUDGET FOR ENTIRE MODEL AT END OF TIME STEP      10 IN STRESS PERIOD      15
  ---------------------------------------------------------------------------------------

     CUMULATIVE VOLUMES      L**3       RATES FOR THIS TIME STEP      L**3/T
     ------------------                 ------------------------

           IN:                                      IN:
           ---                                      ---
             STORAGE =        2249.8458               STORAGE =           4.9970
         CLN STORAGE =           0.1542           CLN STORAGE =       2.9824E-03
       CONSTANT HEAD =           0.0000         CONSTANT HEAD =           0.0000
      CLN CONST HEAD =           0.0000        CLN CONST HEAD =           0.0000
               WELLS =           0.0000                 WELLS =           0.0000

            TOTAL IN =        2249.9999              TOTAL IN =           5.0000

          OUT:                                     OUT:
          ----                                     ----
             STORAGE =           0.0000               STORAGE =           0.0000
         CLN STORAGE =           0.0000           CLN STORAGE =           0.0000
       CONSTANT HEAD =           0.0000         CONSTANT HEAD =           0.0000
      CLN CONST HEAD =           0.0000        CLN CONST HEAD =           0.0000
               WELLS =        2249.9999                 WELLS =           5.0000

           TOTAL OUT =        2249.9999             TOTAL OUT =           5.0000

            IN - OUT =       2.0607E-05              IN - OUT =      -7.2518E-09

 PERCENT DISCREPANCY =           0.00     PERCENT DISCREPANCY =          -0.00






          TIME SUMMARY AT END OF TIME STEP        10 IN STRESS PERIOD        15
                    SECONDS     MINUTES      HOURS       DAYS        YEARS
                    -----------------------------------------------------------
   TIME STEP LENGTH 5.15209E+05  8586.8      143.11      5.9631     1.63260E-02
 STRESS PERIOD TIME 2.59200E+06  43200.      720.00      30.000     8.21355E-02
         TOTAL TIME 3.88800E+07 6.48000E+05  10800.      450.00      1.2320    
1
 ------------------------------------------------------------------------------------------------------------
 
 SOLVING FOR TRANSPORT 

 ------------------------------------------------------------------------------------------------------------------------
     1 CALLS TO SPARSE MATRIX SOLVER PACKAGE IN TRANSPORT TIME STEP      10 STRESS PERIOD      15 SPECIES  1

 TOTAL OF       1OUTER ITERATIONS
  MAXIMUM CHANGE FOR EACH ITERATION:
   MAX. CHANGE        NODE  MAX. CHANGE        NODE  MAX. CHANGE        NODE  MAX. CHANGE        NODE  MAX. CHANGE        NODE
 ------------------------------------------------------------------------------------------------------------------------------------
   0.14316E-10,        191

  MAXIMUM CHANGE FOR CLN NODE AT EACH ITERATION:
   MAX. CHANGE    CLN-CELL  MAX. CHANGE    CLN-CELL  MAX. CHANGE    CLN-CELL  MAX. CHANGE    CLN-CELL  MAX. CHANGE    CLN-CELL
 ------------------------------------------------------------------------------------------------------------------------------------
  -0.71099E-09,          1
     TRANSPORT SOLUTION COMPLETE FOR COMPONENT SPECIES NUMBER    1
     ------------------------------------------------------------
 UBUDSVU SAVING "    MASS STORAGE" ON UNIT 145 AT TIME STEP     10, STRESS PERIOD     15
 UBUDSVU SAVING "CLN MASS STORAGE" ON UNIT 145 AT TIME STEP     10, STRESS PERIOD     15
 UBUDSVU SAVING "CNST H MASS FLUX" ON UNIT 145 AT TIME STEP     10, STRESS PERIOD     15
 UBUDSVU SAVING "  WELL MASS FLUX" ON UNIT 145 AT TIME STEP     10, STRESS PERIOD     15

 TRANSPORT SOLUTION COMPLETE FOR ALL SPECIES, SORTING OUTPUT FOR CONCENTRATIONS AND MASS BALANCE
 ----------------------------------------------------------------------------------------------------
     TRANSPORT OUTPUT FOR COMPONENT SPECIES NUMBER    1
     ------------------------------------------------------------

 CONC WILL BE SAVED ON UNIT  132 AT END OF TIME STEP       10, STRESS PERIOD       15

 CLN CONC WILL BE SAVED ON UNIT  188 AT END OF TIME STEP  10, STRESS PERIOD   15
1
  VOLUMETRIC BUDGET FOR ENTIRE MODEL AT END OF TIME STEP      10 IN STRESS PERIOD      15
  ---------------------------------------------------------------------------------------

     CUMULATIVE VOLUMES      L**3       RATES FOR THIS TIME STEP      L**3/T
     ------------------                 ------------------------

           IN:                                      IN:
           ---                                      ---
        MASS STORAGE =         225.0000          MASS STORAGE =           0.5000
    CNST H MASS FLUX =           0.0000      CNST H MASS FLUX =           0.0000
      WELL MASS FLUX =           0.0000        WELL MASS FLUX =           0.0000

            TOTAL IN =         225.0000              TOTAL IN =           0.5000

          OUT:                                     OUT:
          ----                                     ----
        MASS STORAGE =           0.2827          MASS STORAGE =           0.0000
    CNST H MASS FLUX =           0.0000      CNST H MASS FLUX =           0.0000
      WELL MASS FLUX =         224.7173        WELL MASS FLUX =           0.5000

           TOTAL OUT =         225.0000             TOTAL OUT =           0.5000

            IN - OUT =       4.0657E-10              IN - OUT =           0.0000

 PERCENT DISCREPANCY =           0.00     PERCENT DISCREPANCY =           0.00






          TIME SUMMARY AT END OF TIME STEP        10 IN STRESS PERIOD        15
                    SECONDS     MINUTES      HOURS       DAYS        YEARS
                    -----------------------------------------------------------
   TIME STEP LENGTH 5.15209E+05  8586.8      143.11      5.9631     1.63260E-02
 STRESS PERIOD TIME 2.59200E+06  43200.      720.00      30.000     8.21355E-02
         TOTAL TIME 3.88800E+07 6.48000E+05  10800.      450.00      1.2320    
1
1
                            STRESS PERIOD NO.   16, LENGTH =   30.00000    
                            -----------------------------------------------

                              NUMBER OF TIME STEPS =        10

                               MULTIPLIER FOR DELT =     1.200

                            INITIAL TIME STEP SIZE =   1.155682    

 WEL -- WELL PACKAGE, VERSION 7, 5/2/2005 INPUT READ FROM UNIT   12

 WELL NO.  CLN-NODE       STRESS FACTOR         C01             
 ---------------------------------------------------------------
        1            3      -5.000           0.000           0.000    

      1 WELL 
 -------------------------------------------------------------------------------------
 
 SOLVING FOR HEAD 

 Outer-Iteration  Inner-Iteration  Backtracking  Number of        Incoming       Outgoing  Maximum HeadChange      Maximum Head Change
     Number           Count           Flag       Backtracks       Residual       Residual           Value              Location
        1                             0             0          0.360615E-01     0.360615E-01
        1                5                                                                       -0.515723E-01               400           GWF-node number
        1                5                                                                       -0.487404E-01                 3           CLN-node number
        2                             0             0          0.181258E-08     0.181258E-08
        2                1                                                                        0.776936E-07               190           GWF-node number
        2                1                                                                        0.217980E-06                 1           CLN-node number


     2 CALLS TO SPARSE MATRIX SOLVER PACKAGE  IN FLOW TIME STEP       1 STRESS PERIOD      16

 TOTAL OF       2OUTER ITERATIONS
  MAXIMUM CHANGE FOR EACH ITERATION:
   MAX. CHANGE        NODE  MAX. CHANGE        NODE  MAX. CHANGE        NODE  MAX. CHANGE        NODE  MAX. CHANGE        NODE
 ------------------------------------------------------------------------------------------------------------------------------------
  -0.51572E-01,        400  0.77694E-07,        190

  MAXIMUM CHANGE FOR CLN NODE AT EACH ITERATION:
   MAX. CHANGE    CLN-CELL  MAX. CHANGE    CLN-CELL  MAX. CHANGE    CLN-CELL  MAX. CHANGE    CLN-CELL  MAX. CHANGE    CLN-CELL
 ------------------------------------------------------------------------------------------------------------------------------------
  -0.48740E-01,          3  0.21798E-06,          1

 HEAD/DRAWDOWN PRINTOUT FLAG = 1     TOTAL BUDGET PRINTOUT FLAG = 1
 CELL-BY-CELL FLOW TERM FLAG = 1
 CONCENTRATION PRINTOUT FLAG = 1

 OUTPUT FLAGS FOR ALL LAYERS ARE THE SAME:
   HEAD    DRAWDOWN  HEAD  DRAWDOWN    CONC    CONC
 PRINTOUT  PRINTOUT  SAVE    SAVE    PRINTOUT  SAVE
 ---------------------------------------------------
     0         0       1       1       0       1
 UBUDSVU SAVING "         STORAGE" ON UNIT  50 AT TIME STEP      1, STRESS PERIOD     16
 UBUDSV SAVING "     CLN STORAGE" ON UNIT 144 AT TIME STEP      1, STRESS PERIOD      16
 UBUDSVU SAVING "   CONSTANT HEAD" ON UNIT  50 AT TIME STEP      1, STRESS PERIOD     16
 UBUDSVU SAVING "   FLOW JA FACE " ON UNIT  50 AT TIME STEP      1, STRESS PERIOD     16
 UBUDSVU SAVING "             CLN" ON UNIT  50 AT TIME STEP      1, STRESS PERIOD     16
 UBUDSVU SAVING "  CLN CONST HEAD" ON UNIT 144 AT TIME STEP      1, STRESS PERIOD     16
 UBUDSVU SAVING "   FLOW CLN FACE" ON UNIT 144 AT TIME STEP      1, STRESS PERIOD     16
 UBUDSVU SAVING "             GWF" ON UNIT 144 AT TIME STEP      1, STRESS PERIOD     16
 UBUDSVU SAVING "           WELLS" ON UNIT  50 AT TIME STEP      1, STRESS PERIOD     16
 UBUDSVU SAVING "           WELLS" ON UNIT 144 AT TIME STEP      1, STRESS PERIOD     16

 HEAD WILL BE SAVED ON UNIT       30 AT END OF TIME STEP        1, STRESS PERIOD       16

 DRAWDOWN WILL BE SAVED ON UNIT   31 AT END OF TIME STEP   1, STRESS PERIOD   16

 CLN HEAD WILL BE SAVED ON UNIT   77 AT END OF TIME STEP   1, STRESS PERIOD   16
1
  VOLUMETRIC BUDGET FOR ENTIRE MODEL AT END OF TIME STEP       1 IN STRESS PERIOD      16
  ---------------------------------------------------------------------------------------

     CUMULATIVE VOLUMES      L**3       RATES FOR THIS TIME STEP      L**3/T
     ------------------                 ------------------------

           IN:                                      IN:
           ---                                      ---
             STORAGE =        2255.6207               STORAGE =           4.9970
         CLN STORAGE =           0.1576           CLN STORAGE =       2.9811E-03
       CONSTANT HEAD =           0.0000         CONSTANT HEAD =           0.0000
      CLN CONST HEAD =           0.0000        CLN CONST HEAD =           0.0000
               WELLS =           0.0000                 WELLS =           0.0000

            TOTAL IN =        2255.7783              TOTAL IN =           5.0000

          OUT:                                     OUT:
          ----                                     ----
             STORAGE =           0.0000               STORAGE =           0.0000
         CLN STORAGE =           0.0000           CLN STORAGE =           0.0000
       CONSTANT HEAD =           0.0000         CONSTANT HEAD =           0.0000
      CLN CONST HEAD =           0.0000        CLN CONST HEAD =           0.0000
               WELLS =        2255.7783                 WELLS =           5.0000

           TOTAL OUT =        2255.7783             TOTAL OUT =           5.0000

            IN - OUT =       2.0652E-05              IN - OUT =       3.8622E-08

 PERCENT DISCREPANCY =           0.00     PERCENT DISCREPANCY =           0.00






          TIME SUMMARY AT END OF TIME STEP         1 IN STRESS PERIOD        16
                    SECONDS     MINUTES      HOURS       DAYS        YEARS
                    -----------------------------------------------------------
   TIME STEP LENGTH  99851.      1664.2      27.736      1.1557     3.16409E-03
 STRESS PERIOD TIME  99851.      1664.2      27.736      1.1557     3.16409E-03
         TOTAL TIME 3.89798E+07 6.49664E+05  10828.      451.16      1.2352    
1
 ------------------------------------------------------------------------------------------------------------
 
 SOLVING FOR TRANSPORT 

 ------------------------------------------------------------------------------------------------------------------------
     1 CALLS TO SPARSE MATRIX SOLVER PACKAGE IN TRANSPORT TIME STEP       1 STRESS PERIOD      16 SPECIES  1

 TOTAL OF       1OUTER ITERATIONS
  MAXIMUM CHANGE FOR EACH ITERATION:
   MAX. CHANGE        NODE  MAX. CHANGE        NODE  MAX. CHANGE        NODE  MAX. CHANGE        NODE  MAX. CHANGE        NODE
 ------------------------------------------------------------------------------------------------------------------------------------
   0.56324E-11,        191

  MAXIMUM CHANGE FOR CLN NODE AT EACH ITERATION:
   MAX. CHANGE    CLN-CELL  MAX. CHANGE    CLN-CELL  MAX. CHANGE    CLN-CELL  MAX. CHANGE    CLN-CELL  MAX. CHANGE    CLN-CELL
 ------------------------------------------------------------------------------------------------------------------------------------
   0.10578E-08,          1
     TRANSPORT SOLUTION COMPLETE FOR COMPONENT SPECIES NUMBER    1
     ------------------------------------------------------------
 UBUDSVU SAVING "    MASS STORAGE" ON UNIT 145 AT TIME STEP      1, STRESS PERIOD     16
 UBUDSVU SAVING "CLN MASS STORAGE" ON UNIT 145 AT TIME STEP      1, STRESS PERIOD     16
 UBUDSVU SAVING "CNST H MASS FLUX" ON UNIT 145 AT TIME STEP      1, STRESS PERIOD     16
 UBUDSVU SAVING "  WELL MASS FLUX" ON UNIT 145 AT TIME STEP      1, STRESS PERIOD     16

 TRANSPORT SOLUTION COMPLETE FOR ALL SPECIES, SORTING OUTPUT FOR CONCENTRATIONS AND MASS BALANCE
 ----------------------------------------------------------------------------------------------------
     TRANSPORT OUTPUT FOR COMPONENT SPECIES NUMBER    1
     ------------------------------------------------------------

 CONC WILL BE SAVED ON UNIT  132 AT END OF TIME STEP        1, STRESS PERIOD       16

 CLN CONC WILL BE SAVED ON UNIT  188 AT END OF TIME STEP   1, STRESS PERIOD   16
1
  VOLUMETRIC BUDGET FOR ENTIRE MODEL AT END OF TIME STEP       1 IN STRESS PERIOD      16
  ---------------------------------------------------------------------------------------

     CUMULATIVE VOLUMES      L**3       RATES FOR THIS TIME STEP      L**3/T
     ------------------                 ------------------------

           IN:                                      IN:
           ---                                      ---
        MASS STORAGE =         225.5778          MASS STORAGE =           0.5000
    CNST H MASS FLUX =           0.0000      CNST H MASS FLUX =           0.0000
      WELL MASS FLUX =           0.0000        WELL MASS FLUX =           0.0000

            TOTAL IN =         225.5778              TOTAL IN =           0.5000

          OUT:                                     OUT:
          ----                                     ----
        MASS STORAGE =           0.2827          MASS STORAGE =       6.7130E-10
    CNST H MASS FLUX =           0.0000      CNST H MASS FLUX =           0.0000
      WELL MASS FLUX =         225.2951        WELL MASS FLUX =           0.5000

           TOTAL OUT =         225.5778             TOTAL OUT =           0.5000

            IN - OUT =       4.0637E-10              IN - OUT =      -6.7130E-10

 PERCENT DISCREPANCY =           0.00     PERCENT DISCREPANCY =          -0.00






          TIME SUMMARY AT END OF TIME STEP         1 IN STRESS PERIOD        16
                    SECONDS     MINUTES      HOURS       DAYS        YEARS
                    -----------------------------------------------------------
   TIME STEP LENGTH  99851.      1664.2      27.736      1.1557     3.16409E-03
 STRESS PERIOD TIME  99851.      1664.2      27.736      1.1557     3.16409E-03
         TOTAL TIME 3.89798E+07 6.49664E+05  10828.      451.16      1.2352    
1
 -------------------------------------------------------------------------------------
 
 SOLVING FOR HEAD 

 Outer-Iteration  Inner-Iteration  Backtracking  Number of        Incoming       Outgoing  Maximum HeadChange      Maximum Head Change
     Number           Count           Flag       Backtracks       Residual       Residual           Value              Location
        1                             0             0          0.360421E-01     0.360421E-01
        1                5                                                                       -0.618506E-01               400           GWF-node number
        1                5                                                                       -0.584590E-01                 3           CLN-node number
        2                             0             0          0.381569E-08     0.381569E-08
        2                1                                                                       -0.153244E-07               190           GWF-node number
        2                1                                                                       -0.375656E-07                 2           CLN-node number
     2 CALLS TO SPARSE MATRIX SOLVER PACKAGE  IN FLOW TIME STEP       2 STRESS PERIOD      16

 TOTAL OF       2OUTER ITERATIONS
  MAXIMUM CHANGE FOR EACH ITERATION:
   MAX. CHANGE        NODE  MAX. CHANGE        NODE  MAX. CHANGE        NODE  MAX. CHANGE        NODE  MAX. CHANGE        NODE
 ------------------------------------------------------------------------------------------------------------------------------------
  -0.61851E-01,        400 -0.15324E-07,        190

  MAXIMUM CHANGE FOR CLN NODE AT EACH ITERATION:
   MAX. CHANGE    CLN-CELL  MAX. CHANGE    CLN-CELL  MAX. CHANGE    CLN-CELL  MAX. CHANGE    CLN-CELL  MAX. CHANGE    CLN-CELL
 ------------------------------------------------------------------------------------------------------------------------------------
  -0.58459E-01,          3 -0.37566E-07,          2

 HEAD/DRAWDOWN PRINTOUT FLAG = 1     TOTAL BUDGET PRINTOUT FLAG = 1
 CELL-BY-CELL FLOW TERM FLAG = 1
 CONCENTRATION PRINTOUT FLAG = 1

 OUTPUT FLAGS FOR ALL LAYERS ARE THE SAME:
   HEAD    DRAWDOWN  HEAD  DRAWDOWN    CONC    CONC
 PRINTOUT  PRINTOUT  SAVE    SAVE    PRINTOUT  SAVE
 ---------------------------------------------------
     0         0       1       1       0       1
 UBUDSVU SAVING "         STORAGE" ON UNIT  50 AT TIME STEP      2, STRESS PERIOD     16
 UBUDSV SAVING "     CLN STORAGE" ON UNIT 144 AT TIME STEP      2, STRESS PERIOD      16
 UBUDSVU SAVING "   CONSTANT HEAD" ON UNIT  50 AT TIME STEP      2, STRESS PERIOD     16
 UBUDSVU SAVING "   FLOW JA FACE " ON UNIT  50 AT TIME STEP      2, STRESS PERIOD     16
 UBUDSVU SAVING "             CLN" ON UNIT  50 AT TIME STEP      2, STRESS PERIOD     16
 UBUDSVU SAVING "  CLN CONST HEAD" ON UNIT 144 AT TIME STEP      2, STRESS PERIOD     16
 UBUDSVU SAVING "   FLOW CLN FACE" ON UNIT 144 AT TIME STEP      2, STRESS PERIOD     16
 UBUDSVU SAVING "             GWF" ON UNIT 144 AT TIME STEP      2, STRESS PERIOD     16
 UBUDSVU SAVING "           WELLS" ON UNIT  50 AT TIME STEP      2, STRESS PERIOD     16
 UBUDSVU SAVING "           WELLS" ON UNIT 144 AT TIME STEP      2, STRESS PERIOD     16

 HEAD WILL BE SAVED ON UNIT       30 AT END OF TIME STEP        2, STRESS PERIOD       16

 DRAWDOWN WILL BE SAVED ON UNIT   31 AT END OF TIME STEP   2, STRESS PERIOD   16

 CLN HEAD WILL BE SAVED ON UNIT   77 AT END OF TIME STEP   2, STRESS PERIOD   16
1
  VOLUMETRIC BUDGET FOR ENTIRE MODEL AT END OF TIME STEP       2 IN STRESS PERIOD      16
  ---------------------------------------------------------------------------------------

     CUMULATIVE VOLUMES      L**3       RATES FOR THIS TIME STEP      L**3/T
     ------------------                 ------------------------

           IN:                                      IN:
           ---                                      ---
             STORAGE =        2262.5507               STORAGE =           4.9970
         CLN STORAGE =           0.1617           CLN STORAGE =       2.9796E-03
       CONSTANT HEAD =           0.0000         CONSTANT HEAD =           0.0000
      CLN CONST HEAD =           0.0000        CLN CONST HEAD =           0.0000
               WELLS =           0.0000                 WELLS =           0.0000

            TOTAL IN =        2262.7124              TOTAL IN =           5.0000

          OUT:                                     OUT:
          ----                                     ----
             STORAGE =           0.0000               STORAGE =           0.0000
         CLN STORAGE =           0.0000           CLN STORAGE =           0.0000
       CONSTANT HEAD =           0.0000         CONSTANT HEAD =           0.0000
      CLN CONST HEAD =           0.0000        CLN CONST HEAD =           0.0000
               WELLS =        2262.7124                 WELLS =           5.0000

           TOTAL OUT =        2262.7124             TOTAL OUT =           5.0000

            IN - OUT =       2.0672E-05              IN - OUT =       1.4678E-08

 PERCENT DISCREPANCY =           0.00     PERCENT DISCREPANCY =           0.00






          TIME SUMMARY AT END OF TIME STEP         2 IN STRESS PERIOD        16
                    SECONDS     MINUTES      HOURS       DAYS        YEARS
                    -----------------------------------------------------------
   TIME STEP LENGTH 1.19821E+05  1997.0      33.284      1.3868     3.79690E-03
 STRESS PERIOD TIME 2.19672E+05  3661.2      61.020      2.5425     6.96099E-03
         TOTAL TIME 3.90997E+07 6.51661E+05  10861.      452.54      1.2390    
1
 ------------------------------------------------------------------------------------------------------------
 
 SOLVING FOR TRANSPORT 

 ------------------------------------------------------------------------------------------------------------------------
     1 CALLS TO SPARSE MATRIX SOLVER PACKAGE IN TRANSPORT TIME STEP       2 STRESS PERIOD      16 SPECIES  1

 TOTAL OF       1OUTER ITERATIONS
  MAXIMUM CHANGE FOR EACH ITERATION:
   MAX. CHANGE        NODE  MAX. CHANGE        NODE  MAX. CHANGE        NODE  MAX. CHANGE        NODE  MAX. CHANGE        NODE
 ------------------------------------------------------------------------------------------------------------------------------------
  -0.60965E-11,        191

  MAXIMUM CHANGE FOR CLN NODE AT EACH ITERATION:
   MAX. CHANGE    CLN-CELL  MAX. CHANGE    CLN-CELL  MAX. CHANGE    CLN-CELL  MAX. CHANGE    CLN-CELL  MAX. CHANGE    CLN-CELL
 ------------------------------------------------------------------------------------------------------------------------------------
  -0.13008E-08,          1
     TRANSPORT SOLUTION COMPLETE FOR COMPONENT SPECIES NUMBER    1
     ------------------------------------------------------------
 UBUDSVU SAVING "    MASS STORAGE" ON UNIT 145 AT TIME STEP      2, STRESS PERIOD     16
 UBUDSVU SAVING "CLN MASS STORAGE" ON UNIT 145 AT TIME STEP      2, STRESS PERIOD     16
 UBUDSVU SAVING "CNST H MASS FLUX" ON UNIT 145 AT TIME STEP      2, STRESS PERIOD     16
 UBUDSVU SAVING "  WELL MASS FLUX" ON UNIT 145 AT TIME STEP      2, STRESS PERIOD     16

 TRANSPORT SOLUTION COMPLETE FOR ALL SPECIES, SORTING OUTPUT FOR CONCENTRATIONS AND MASS BALANCE
 ----------------------------------------------------------------------------------------------------
     TRANSPORT OUTPUT FOR COMPONENT SPECIES NUMBER    1
     ------------------------------------------------------------

 CONC WILL BE SAVED ON UNIT  132 AT END OF TIME STEP        2, STRESS PERIOD       16

 CLN CONC WILL BE SAVED ON UNIT  188 AT END OF TIME STEP   2, STRESS PERIOD   16
1
  VOLUMETRIC BUDGET FOR ENTIRE MODEL AT END OF TIME STEP       2 IN STRESS PERIOD      16
  ---------------------------------------------------------------------------------------

     CUMULATIVE VOLUMES      L**3       RATES FOR THIS TIME STEP      L**3/T
     ------------------                 ------------------------

           IN:                                      IN:
           ---                                      ---
        MASS STORAGE =         226.2713          MASS STORAGE =           0.5000
    CNST H MASS FLUX =           0.0000      CNST H MASS FLUX =           0.0000
      WELL MASS FLUX =           0.0000        WELL MASS FLUX =           0.0000

            TOTAL IN =         226.2713              TOTAL IN =           0.5000

          OUT:                                     OUT:
          ----                                     ----
        MASS STORAGE =           0.2827          MASS STORAGE =       6.4321E-10
    CNST H MASS FLUX =           0.0000      CNST H MASS FLUX =           0.0000
      WELL MASS FLUX =         225.9885        WELL MASS FLUX =           0.5000

           TOTAL OUT =         226.2713             TOTAL OUT =           0.5000

            IN - OUT =       4.0592E-10              IN - OUT =      -6.4321E-10

 PERCENT DISCREPANCY =           0.00     PERCENT DISCREPANCY =          -0.00






          TIME SUMMARY AT END OF TIME STEP         2 IN STRESS PERIOD        16
                    SECONDS     MINUTES      HOURS       DAYS        YEARS
                    -----------------------------------------------------------
   TIME STEP LENGTH 1.19821E+05  1997.0      33.284      1.3868     3.79690E-03
 STRESS PERIOD TIME 2.19672E+05  3661.2      61.020      2.5425     6.96099E-03
         TOTAL TIME 3.90997E+07 6.51661E+05  10861.      452.54      1.2390    
1
 -------------------------------------------------------------------------------------
 
 SOLVING FOR HEAD 

 Outer-Iteration  Inner-Iteration  Backtracking  Number of        Incoming       Outgoing  Maximum HeadChange      Maximum Head Change
     Number           Count           Flag       Backtracks       Residual       Residual           Value              Location
        1                             0             0          0.360190E-01     0.360190E-01
        1                5                                                                       -0.741689E-01               400           GWF-node number
        1                5                                                                       -0.701089E-01                 3           CLN-node number
        2                             0             0          0.799023E-08     0.799023E-08
        2                1                                                                        0.394058E-07               190           GWF-node number
        2                1                                                                        0.119736E-06                 1           CLN-node number
     2 CALLS TO SPARSE MATRIX SOLVER PACKAGE  IN FLOW TIME STEP       3 STRESS PERIOD      16

 TOTAL OF       2OUTER ITERATIONS
  MAXIMUM CHANGE FOR EACH ITERATION:
   MAX. CHANGE        NODE  MAX. CHANGE        NODE  MAX. CHANGE        NODE  MAX. CHANGE        NODE  MAX. CHANGE        NODE
 ------------------------------------------------------------------------------------------------------------------------------------
  -0.74169E-01,        400  0.39406E-07,        190

  MAXIMUM CHANGE FOR CLN NODE AT EACH ITERATION:
   MAX. CHANGE    CLN-CELL  MAX. CHANGE    CLN-CELL  MAX. CHANGE    CLN-CELL  MAX. CHANGE    CLN-CELL  MAX. CHANGE    CLN-CELL
 ------------------------------------------------------------------------------------------------------------------------------------
  -0.70109E-01,          3  0.11974E-06,          1

 HEAD/DRAWDOWN PRINTOUT FLAG = 1     TOTAL BUDGET PRINTOUT FLAG = 1
 CELL-BY-CELL FLOW TERM FLAG = 1
 CONCENTRATION PRINTOUT FLAG = 1

 OUTPUT FLAGS FOR ALL LAYERS ARE THE SAME:
   HEAD    DRAWDOWN  HEAD  DRAWDOWN    CONC    CONC
 PRINTOUT  PRINTOUT  SAVE    SAVE    PRINTOUT  SAVE
 ---------------------------------------------------
     0         0       1       1       0       1
 UBUDSVU SAVING "         STORAGE" ON UNIT  50 AT TIME STEP      3, STRESS PERIOD     16
 UBUDSV SAVING "     CLN STORAGE" ON UNIT 144 AT TIME STEP      3, STRESS PERIOD      16
 UBUDSVU SAVING "   CONSTANT HEAD" ON UNIT  50 AT TIME STEP      3, STRESS PERIOD     16
 UBUDSVU SAVING "   FLOW JA FACE " ON UNIT  50 AT TIME STEP      3, STRESS PERIOD     16
 UBUDSVU SAVING "             CLN" ON UNIT  50 AT TIME STEP      3, STRESS PERIOD     16
 UBUDSVU SAVING "  CLN CONST HEAD" ON UNIT 144 AT TIME STEP      3, STRESS PERIOD     16
 UBUDSVU SAVING "   FLOW CLN FACE" ON UNIT 144 AT TIME STEP      3, STRESS PERIOD     16
 UBUDSVU SAVING "             GWF" ON UNIT 144 AT TIME STEP      3, STRESS PERIOD     16
 UBUDSVU SAVING "           WELLS" ON UNIT  50 AT TIME STEP      3, STRESS PERIOD     16
 UBUDSVU SAVING "           WELLS" ON UNIT 144 AT TIME STEP      3, STRESS PERIOD     16

 HEAD WILL BE SAVED ON UNIT       30 AT END OF TIME STEP        3, STRESS PERIOD       16

 DRAWDOWN WILL BE SAVED ON UNIT   31 AT END OF TIME STEP   3, STRESS PERIOD   16

 CLN HEAD WILL BE SAVED ON UNIT   77 AT END OF TIME STEP   3, STRESS PERIOD   16
1
  VOLUMETRIC BUDGET FOR ENTIRE MODEL AT END OF TIME STEP       3 IN STRESS PERIOD      16
  ---------------------------------------------------------------------------------------

     CUMULATIVE VOLUMES      L**3       RATES FOR THIS TIME STEP      L**3/T
     ------------------                 ------------------------

           IN:                                      IN:
           ---                                      ---
             STORAGE =        2270.8667               STORAGE =           4.9970
         CLN STORAGE =           0.1667           CLN STORAGE =       2.9779E-03
       CONSTANT HEAD =           0.0000         CONSTANT HEAD =           0.0000
      CLN CONST HEAD =           0.0000        CLN CONST HEAD =           0.0000
               WELLS =           0.0000                 WELLS =           0.0000

            TOTAL IN =        2271.0334              TOTAL IN =           5.0000

          OUT:                                     OUT:
          ----                                     ----
             STORAGE =           0.0000               STORAGE =           0.0000
         CLN STORAGE =           0.0000           CLN STORAGE =           0.0000
       CONSTANT HEAD =           0.0000         CONSTANT HEAD =           0.0000
      CLN CONST HEAD =           0.0000        CLN CONST HEAD =           0.0000
               WELLS =        2271.0333                 WELLS =           5.0000

           TOTAL OUT =        2271.0333             TOTAL OUT =           5.0000

            IN - OUT =       2.0660E-05              IN - OUT =      -7.2327E-09

 PERCENT DISCREPANCY =           0.00     PERCENT DISCREPANCY =          -0.00






          TIME SUMMARY AT END OF TIME STEP         3 IN STRESS PERIOD        16
                    SECONDS     MINUTES      HOURS       DAYS        YEARS
                    -----------------------------------------------------------
   TIME STEP LENGTH 1.43785E+05  2396.4      39.940      1.6642     4.55628E-03
 STRESS PERIOD TIME 3.63458E+05  6057.6      100.96      4.2067     1.15173E-02
         TOTAL TIME 3.92435E+07 6.54058E+05  10901.      454.21      1.2436    
1
 ------------------------------------------------------------------------------------------------------------
 
 SOLVING FOR TRANSPORT 

 ------------------------------------------------------------------------------------------------------------------------
     1 CALLS TO SPARSE MATRIX SOLVER PACKAGE IN TRANSPORT TIME STEP       3 STRESS PERIOD      16 SPECIES  1

 TOTAL OF       1OUTER ITERATIONS
  MAXIMUM CHANGE FOR EACH ITERATION:
   MAX. CHANGE        NODE  MAX. CHANGE        NODE  MAX. CHANGE        NODE  MAX. CHANGE        NODE  MAX. CHANGE        NODE
 ------------------------------------------------------------------------------------------------------------------------------------
   0.27255E-11,        210

  MAXIMUM CHANGE FOR CLN NODE AT EACH ITERATION:
   MAX. CHANGE    CLN-CELL  MAX. CHANGE    CLN-CELL  MAX. CHANGE    CLN-CELL  MAX. CHANGE    CLN-CELL  MAX. CHANGE    CLN-CELL
 ------------------------------------------------------------------------------------------------------------------------------------
  -0.92478E-09,          3
     TRANSPORT SOLUTION COMPLETE FOR COMPONENT SPECIES NUMBER    1
     ------------------------------------------------------------
 UBUDSVU SAVING "    MASS STORAGE" ON UNIT 145 AT TIME STEP      3, STRESS PERIOD     16
 UBUDSVU SAVING "CLN MASS STORAGE" ON UNIT 145 AT TIME STEP      3, STRESS PERIOD     16
 UBUDSVU SAVING "CNST H MASS FLUX" ON UNIT 145 AT TIME STEP      3, STRESS PERIOD     16
 UBUDSVU SAVING "  WELL MASS FLUX" ON UNIT 145 AT TIME STEP      3, STRESS PERIOD     16

 TRANSPORT SOLUTION COMPLETE FOR ALL SPECIES, SORTING OUTPUT FOR CONCENTRATIONS AND MASS BALANCE
 ----------------------------------------------------------------------------------------------------
     TRANSPORT OUTPUT FOR COMPONENT SPECIES NUMBER    1
     ------------------------------------------------------------

 CONC WILL BE SAVED ON UNIT  132 AT END OF TIME STEP        3, STRESS PERIOD       16

 CLN CONC WILL BE SAVED ON UNIT  188 AT END OF TIME STEP   3, STRESS PERIOD   16
1
  VOLUMETRIC BUDGET FOR ENTIRE MODEL AT END OF TIME STEP       3 IN STRESS PERIOD      16
  ---------------------------------------------------------------------------------------

     CUMULATIVE VOLUMES      L**3       RATES FOR THIS TIME STEP      L**3/T
     ------------------                 ------------------------

           IN:                                      IN:
           ---                                      ---
        MASS STORAGE =         227.1033          MASS STORAGE =           0.5000
    CNST H MASS FLUX =           0.0000      CNST H MASS FLUX =           0.0000
      WELL MASS FLUX =           0.0000        WELL MASS FLUX =           0.0000

            TOTAL IN =         227.1033              TOTAL IN =           0.5000

          OUT:                                     OUT:
          ----                                     ----
        MASS STORAGE =           0.2827          MASS STORAGE =           0.0000
    CNST H MASS FLUX =           0.0000      CNST H MASS FLUX =           0.0000
      WELL MASS FLUX =         226.8206        WELL MASS FLUX =           0.5000

           TOTAL OUT =         227.1033             TOTAL OUT =           0.5000

            IN - OUT =       4.0623E-10              IN - OUT =           0.0000

 PERCENT DISCREPANCY =           0.00     PERCENT DISCREPANCY =           0.00






          TIME SUMMARY AT END OF TIME STEP         3 IN STRESS PERIOD        16
                    SECONDS     MINUTES      HOURS       DAYS        YEARS
                    -----------------------------------------------------------
   TIME STEP LENGTH 1.43785E+05  2396.4      39.940      1.6642     4.55628E-03
 STRESS PERIOD TIME 3.63458E+05  6057.6      100.96      4.2067     1.15173E-02
         TOTAL TIME 3.92435E+07 6.54058E+05  10901.      454.21      1.2436    
1
 -------------------------------------------------------------------------------------
 
 SOLVING FOR HEAD 

 Outer-Iteration  Inner-Iteration  Backtracking  Number of        Incoming       Outgoing  Maximum HeadChange      Maximum Head Change
     Number           Count           Flag       Backtracks       Residual       Residual           Value              Location
        1                             0             0          0.359914E-01     0.359914E-01
        1                5                                                                       -0.889283E-01               400           GWF-node number
        1                5                                                                       -0.840707E-01                 3           CLN-node number
        2                             0             0          0.167765E-07     0.167765E-07
        2                1                                                                       -0.763981E-07               190           GWF-node number
        2                1                                                                       -0.151089E-06                 3           CLN-node number
     2 CALLS TO SPARSE MATRIX SOLVER PACKAGE  IN FLOW TIME STEP       4 STRESS PERIOD      16

 TOTAL OF       2OUTER ITERATIONS
  MAXIMUM CHANGE FOR EACH ITERATION:
   MAX. CHANGE        NODE  MAX. CHANGE        NODE  MAX. CHANGE        NODE  MAX. CHANGE        NODE  MAX. CHANGE        NODE
 ------------------------------------------------------------------------------------------------------------------------------------
  -0.88928E-01,        400 -0.76398E-07,        190

  MAXIMUM CHANGE FOR CLN NODE AT EACH ITERATION:
   MAX. CHANGE    CLN-CELL  MAX. CHANGE    CLN-CELL  MAX. CHANGE    CLN-CELL  MAX. CHANGE    CLN-CELL  MAX. CHANGE    CLN-CELL
 ------------------------------------------------------------------------------------------------------------------------------------
  -0.84071E-01,          3 -0.15109E-06,          3

 HEAD/DRAWDOWN PRINTOUT FLAG = 1     TOTAL BUDGET PRINTOUT FLAG = 1
 CELL-BY-CELL FLOW TERM FLAG = 1
 CONCENTRATION PRINTOUT FLAG = 1

 OUTPUT FLAGS FOR ALL LAYERS ARE THE SAME:
   HEAD    DRAWDOWN  HEAD  DRAWDOWN    CONC    CONC
 PRINTOUT  PRINTOUT  SAVE    SAVE    PRINTOUT  SAVE
 ---------------------------------------------------
     0         0       1       1       0       1
 UBUDSVU SAVING "         STORAGE" ON UNIT  50 AT TIME STEP      4, STRESS PERIOD     16
 UBUDSV SAVING "     CLN STORAGE" ON UNIT 144 AT TIME STEP      4, STRESS PERIOD      16
 UBUDSVU SAVING "   CONSTANT HEAD" ON UNIT  50 AT TIME STEP      4, STRESS PERIOD     16
 UBUDSVU SAVING "   FLOW JA FACE " ON UNIT  50 AT TIME STEP      4, STRESS PERIOD     16
 UBUDSVU SAVING "             CLN" ON UNIT  50 AT TIME STEP      4, STRESS PERIOD     16
 UBUDSVU SAVING "  CLN CONST HEAD" ON UNIT 144 AT TIME STEP      4, STRESS PERIOD     16
 UBUDSVU SAVING "   FLOW CLN FACE" ON UNIT 144 AT TIME STEP      4, STRESS PERIOD     16
 UBUDSVU SAVING "             GWF" ON UNIT 144 AT TIME STEP      4, STRESS PERIOD     16
 UBUDSVU SAVING "           WELLS" ON UNIT  50 AT TIME STEP      4, STRESS PERIOD     16
 UBUDSVU SAVING "           WELLS" ON UNIT 144 AT TIME STEP      4, STRESS PERIOD     16

 HEAD WILL BE SAVED ON UNIT       30 AT END OF TIME STEP        4, STRESS PERIOD       16

 DRAWDOWN WILL BE SAVED ON UNIT   31 AT END OF TIME STEP   4, STRESS PERIOD   16

 CLN HEAD WILL BE SAVED ON UNIT   77 AT END OF TIME STEP   4, STRESS PERIOD   16
1
  VOLUMETRIC BUDGET FOR ENTIRE MODEL AT END OF TIME STEP       4 IN STRESS PERIOD      16
  ---------------------------------------------------------------------------------------

     CUMULATIVE VOLUMES      L**3       RATES FOR THIS TIME STEP      L**3/T
     ------------------                 ------------------------

           IN:                                      IN:
           ---                                      ---
             STORAGE =        2280.8458               STORAGE =           4.9970
         CLN STORAGE =           0.1726           CLN STORAGE =       2.9757E-03
       CONSTANT HEAD =           0.0000         CONSTANT HEAD =           0.0000
      CLN CONST HEAD =           0.0000        CLN CONST HEAD =           0.0000
               WELLS =           0.0000                 WELLS =           0.0000

            TOTAL IN =        2281.0185              TOTAL IN =           5.0000

          OUT:                                     OUT:
          ----                                     ----
             STORAGE =           0.0000               STORAGE =           0.0000
         CLN STORAGE =           0.0000           CLN STORAGE =           0.0000
       CONSTANT HEAD =           0.0000         CONSTANT HEAD =           0.0000
      CLN CONST HEAD =           0.0000        CLN CONST HEAD =           0.0000
               WELLS =        2281.0184                 WELLS =           5.0000

           TOTAL OUT =        2281.0184             TOTAL OUT =           5.0000

            IN - OUT =       2.0812E-05              IN - OUT =       7.5934E-08

 PERCENT DISCREPANCY =           0.00     PERCENT DISCREPANCY =           0.00






          TIME SUMMARY AT END OF TIME STEP         4 IN STRESS PERIOD        16
                    SECONDS     MINUTES      HOURS       DAYS        YEARS
                    -----------------------------------------------------------
   TIME STEP LENGTH 1.72542E+05  2875.7      47.928      1.9970     5.46754E-03
 STRESS PERIOD TIME 5.36000E+05  8933.3      148.89      6.2037     1.69848E-02
         TOTAL TIME 3.94160E+07 6.56933E+05  10949.      456.20      1.2490    
1
 ------------------------------------------------------------------------------------------------------------
 
 SOLVING FOR TRANSPORT 

 ------------------------------------------------------------------------------------------------------------------------
     1 CALLS TO SPARSE MATRIX SOLVER PACKAGE IN TRANSPORT TIME STEP       4 STRESS PERIOD      16 SPECIES  1

 TOTAL OF       1OUTER ITERATIONS
  MAXIMUM CHANGE FOR EACH ITERATION:
   MAX. CHANGE        NODE  MAX. CHANGE        NODE  MAX. CHANGE        NODE  MAX. CHANGE        NODE  MAX. CHANGE        NODE
 ------------------------------------------------------------------------------------------------------------------------------------
  -0.17777E-10,        191

  MAXIMUM CHANGE FOR CLN NODE AT EACH ITERATION:
   MAX. CHANGE    CLN-CELL  MAX. CHANGE    CLN-CELL  MAX. CHANGE    CLN-CELL  MAX. CHANGE    CLN-CELL  MAX. CHANGE    CLN-CELL
 ------------------------------------------------------------------------------------------------------------------------------------
   0.23036E-08,          3
     TRANSPORT SOLUTION COMPLETE FOR COMPONENT SPECIES NUMBER    1
     ------------------------------------------------------------
 UBUDSVU SAVING "    MASS STORAGE" ON UNIT 145 AT TIME STEP      4, STRESS PERIOD     16
 UBUDSVU SAVING "CLN MASS STORAGE" ON UNIT 145 AT TIME STEP      4, STRESS PERIOD     16
 UBUDSVU SAVING "CNST H MASS FLUX" ON UNIT 145 AT TIME STEP      4, STRESS PERIOD     16
 UBUDSVU SAVING "  WELL MASS FLUX" ON UNIT 145 AT TIME STEP      4, STRESS PERIOD     16

 TRANSPORT SOLUTION COMPLETE FOR ALL SPECIES, SORTING OUTPUT FOR CONCENTRATIONS AND MASS BALANCE
 ----------------------------------------------------------------------------------------------------
     TRANSPORT OUTPUT FOR COMPONENT SPECIES NUMBER    1
     ------------------------------------------------------------

 CONC WILL BE SAVED ON UNIT  132 AT END OF TIME STEP        4, STRESS PERIOD       16

 CLN CONC WILL BE SAVED ON UNIT  188 AT END OF TIME STEP   4, STRESS PERIOD   16
1
  VOLUMETRIC BUDGET FOR ENTIRE MODEL AT END OF TIME STEP       4 IN STRESS PERIOD      16
  ---------------------------------------------------------------------------------------

     CUMULATIVE VOLUMES      L**3       RATES FOR THIS TIME STEP      L**3/T
     ------------------                 ------------------------

           IN:                                      IN:
           ---                                      ---
        MASS STORAGE =         228.1019          MASS STORAGE =           0.5000
    CNST H MASS FLUX =           0.0000      CNST H MASS FLUX =           0.0000
      WELL MASS FLUX =           0.0000        WELL MASS FLUX =           0.0000

            TOTAL IN =         228.1019              TOTAL IN =           0.5000

          OUT:                                     OUT:
          ----                                     ----
        MASS STORAGE =           0.2827          MASS STORAGE =       1.6295E-09
    CNST H MASS FLUX =           0.0000      CNST H MASS FLUX =           0.0000
      WELL MASS FLUX =         227.8191        WELL MASS FLUX =           0.5000

           TOTAL OUT =         228.1019             TOTAL OUT =           0.5000

            IN - OUT =       4.0279E-10              IN - OUT =      -1.6295E-09

 PERCENT DISCREPANCY =           0.00     PERCENT DISCREPANCY =          -0.00






          TIME SUMMARY AT END OF TIME STEP         4 IN STRESS PERIOD        16
                    SECONDS     MINUTES      HOURS       DAYS        YEARS
                    -----------------------------------------------------------
   TIME STEP LENGTH 1.72542E+05  2875.7      47.928      1.9970     5.46754E-03
 STRESS PERIOD TIME 5.36000E+05  8933.3      148.89      6.2037     1.69848E-02
         TOTAL TIME 3.94160E+07 6.56933E+05  10949.      456.20      1.2490    
1
 -------------------------------------------------------------------------------------
 
 SOLVING FOR HEAD 

 Outer-Iteration  Inner-Iteration  Backtracking  Number of        Incoming       Outgoing  Maximum HeadChange      Maximum Head Change
     Number           Count           Flag       Backtracks       Residual       Residual           Value              Location
        1                             0             0          0.359585E-01     0.359585E-01
        1                6                                                                       -0.106607                   400           GWF-node number
        1                6                                                                       -0.100798                     2           CLN-node number
        2                             0             0          0.353694E-07     0.353694E-07
        2                1                                                                        0.514176E-08               190           GWF-node number
        2                1                                                                        0.145595E-07                 1           CLN-node number
     2 CALLS TO SPARSE MATRIX SOLVER PACKAGE  IN FLOW TIME STEP       5 STRESS PERIOD      16

 TOTAL OF       2OUTER ITERATIONS
  MAXIMUM CHANGE FOR EACH ITERATION:
   MAX. CHANGE        NODE  MAX. CHANGE        NODE  MAX. CHANGE        NODE  MAX. CHANGE        NODE  MAX. CHANGE        NODE
 ------------------------------------------------------------------------------------------------------------------------------------
  -0.10661    ,        400  0.51418E-08,        190

  MAXIMUM CHANGE FOR CLN NODE AT EACH ITERATION:
   MAX. CHANGE    CLN-CELL  MAX. CHANGE    CLN-CELL  MAX. CHANGE    CLN-CELL  MAX. CHANGE    CLN-CELL  MAX. CHANGE    CLN-CELL
 ------------------------------------------------------------------------------------------------------------------------------------
  -0.10080    ,          2  0.14560E-07,          1

 HEAD/DRAWDOWN PRINTOUT FLAG = 1     TOTAL BUDGET PRINTOUT FLAG = 1
 CELL-BY-CELL FLOW TERM FLAG = 1
 CONCENTRATION PRINTOUT FLAG = 1

 OUTPUT FLAGS FOR ALL LAYERS ARE THE SAME:
   HEAD    DRAWDOWN  HEAD  DRAWDOWN    CONC    CONC
 PRINTOUT  PRINTOUT  SAVE    SAVE    PRINTOUT  SAVE
 ---------------------------------------------------
     0         0       1       1       0       1
 UBUDSVU SAVING "         STORAGE" ON UNIT  50 AT TIME STEP      5, STRESS PERIOD     16
 UBUDSV SAVING "     CLN STORAGE" ON UNIT 144 AT TIME STEP      5, STRESS PERIOD      16
 UBUDSVU SAVING "   CONSTANT HEAD" ON UNIT  50 AT TIME STEP      5, STRESS PERIOD     16
 UBUDSVU SAVING "   FLOW JA FACE " ON UNIT  50 AT TIME STEP      5, STRESS PERIOD     16
 UBUDSVU SAVING "             CLN" ON UNIT  50 AT TIME STEP      5, STRESS PERIOD     16
 UBUDSVU SAVING "  CLN CONST HEAD" ON UNIT 144 AT TIME STEP      5, STRESS PERIOD     16
 UBUDSVU SAVING "   FLOW CLN FACE" ON UNIT 144 AT TIME STEP      5, STRESS PERIOD     16
 UBUDSVU SAVING "             GWF" ON UNIT 144 AT TIME STEP      5, STRESS PERIOD     16
 UBUDSVU SAVING "           WELLS" ON UNIT  50 AT TIME STEP      5, STRESS PERIOD     16
 UBUDSVU SAVING "           WELLS" ON UNIT 144 AT TIME STEP      5, STRESS PERIOD     16

 HEAD WILL BE SAVED ON UNIT       30 AT END OF TIME STEP        5, STRESS PERIOD       16

 DRAWDOWN WILL BE SAVED ON UNIT   31 AT END OF TIME STEP   5, STRESS PERIOD   16

 CLN HEAD WILL BE SAVED ON UNIT   77 AT END OF TIME STEP   5, STRESS PERIOD   16
1
  VOLUMETRIC BUDGET FOR ENTIRE MODEL AT END OF TIME STEP       5 IN STRESS PERIOD      16
  ---------------------------------------------------------------------------------------

     CUMULATIVE VOLUMES      L**3       RATES FOR THIS TIME STEP      L**3/T
     ------------------                 ------------------------

           IN:                                      IN:
           ---                                      ---
             STORAGE =        2292.8208               STORAGE =           4.9970
         CLN STORAGE =           0.1798           CLN STORAGE =       2.9732E-03
       CONSTANT HEAD =           0.0000         CONSTANT HEAD =           0.0000
      CLN CONST HEAD =           0.0000        CLN CONST HEAD =           0.0000
               WELLS =           0.0000                 WELLS =           0.0000

            TOTAL IN =        2293.0006              TOTAL IN =           5.0000

          OUT:                                     OUT:
          ----                                     ----
             STORAGE =           0.0000               STORAGE =           0.0000
         CLN STORAGE =           0.0000           CLN STORAGE =           0.0000
       CONSTANT HEAD =           0.0000         CONSTANT HEAD =           0.0000
      CLN CONST HEAD =           0.0000        CLN CONST HEAD =           0.0000
               WELLS =        2293.0005                 WELLS =           5.0000

           TOTAL OUT =        2293.0005             TOTAL OUT =           5.0000

            IN - OUT =       2.0837E-05              IN - OUT =       1.0691E-08

 PERCENT DISCREPANCY =           0.00     PERCENT DISCREPANCY =           0.00






          TIME SUMMARY AT END OF TIME STEP         5 IN STRESS PERIOD        16
                    SECONDS     MINUTES      HOURS       DAYS        YEARS
                    -----------------------------------------------------------
   TIME STEP LENGTH 2.07051E+05  3450.8      57.514      2.3964     6.56105E-03
 STRESS PERIOD TIME 7.43051E+05  12384.      206.40      8.6001     2.35459E-02
         TOTAL TIME 3.96230E+07 6.60384E+05  11006.      458.60      1.2556    
1
 ------------------------------------------------------------------------------------------------------------
 
 SOLVING FOR TRANSPORT 

 ------------------------------------------------------------------------------------------------------------------------
     1 CALLS TO SPARSE MATRIX SOLVER PACKAGE IN TRANSPORT TIME STEP       5 STRESS PERIOD      16 SPECIES  1

 TOTAL OF       1OUTER ITERATIONS
  MAXIMUM CHANGE FOR EACH ITERATION:
   MAX. CHANGE        NODE  MAX. CHANGE        NODE  MAX. CHANGE        NODE  MAX. CHANGE        NODE  MAX. CHANGE        NODE
 ------------------------------------------------------------------------------------------------------------------------------------
  -0.55194E-11,        191

  MAXIMUM CHANGE FOR CLN NODE AT EACH ITERATION:
   MAX. CHANGE    CLN-CELL  MAX. CHANGE    CLN-CELL  MAX. CHANGE    CLN-CELL  MAX. CHANGE    CLN-CELL  MAX. CHANGE    CLN-CELL
 ------------------------------------------------------------------------------------------------------------------------------------
  -0.25686E-08,          2
     TRANSPORT SOLUTION COMPLETE FOR COMPONENT SPECIES NUMBER    1
     ------------------------------------------------------------
 UBUDSVU SAVING "    MASS STORAGE" ON UNIT 145 AT TIME STEP      5, STRESS PERIOD     16
 UBUDSVU SAVING "CLN MASS STORAGE" ON UNIT 145 AT TIME STEP      5, STRESS PERIOD     16
 UBUDSVU SAVING "CNST H MASS FLUX" ON UNIT 145 AT TIME STEP      5, STRESS PERIOD     16
 UBUDSVU SAVING "  WELL MASS FLUX" ON UNIT 145 AT TIME STEP      5, STRESS PERIOD     16

 TRANSPORT SOLUTION COMPLETE FOR ALL SPECIES, SORTING OUTPUT FOR CONCENTRATIONS AND MASS BALANCE
 ----------------------------------------------------------------------------------------------------
     TRANSPORT OUTPUT FOR COMPONENT SPECIES NUMBER    1
     ------------------------------------------------------------

 CONC WILL BE SAVED ON UNIT  132 AT END OF TIME STEP        5, STRESS PERIOD       16

 CLN CONC WILL BE SAVED ON UNIT  188 AT END OF TIME STEP   5, STRESS PERIOD   16
1
  VOLUMETRIC BUDGET FOR ENTIRE MODEL AT END OF TIME STEP       5 IN STRESS PERIOD      16
  ---------------------------------------------------------------------------------------

     CUMULATIVE VOLUMES      L**3       RATES FOR THIS TIME STEP      L**3/T
     ------------------                 ------------------------

           IN:                                      IN:
           ---                                      ---
        MASS STORAGE =         229.3001          MASS STORAGE =           0.5000
    CNST H MASS FLUX =           0.0000      CNST H MASS FLUX =           0.0000
      WELL MASS FLUX =           0.0000        WELL MASS FLUX =           0.0000

            TOTAL IN =         229.3001              TOTAL IN =           0.5000

          OUT:                                     OUT:
          ----                                     ----
        MASS STORAGE =           0.2827          MASS STORAGE =           0.0000
    CNST H MASS FLUX =           0.0000      CNST H MASS FLUX =           0.0000
      WELL MASS FLUX =         229.0173        WELL MASS FLUX =           0.5000

           TOTAL OUT =         229.3001             TOTAL OUT =           0.5000

            IN - OUT =       4.0117E-10              IN - OUT =           0.0000

 PERCENT DISCREPANCY =           0.00     PERCENT DISCREPANCY =           0.00






          TIME SUMMARY AT END OF TIME STEP         5 IN STRESS PERIOD        16
                    SECONDS     MINUTES      HOURS       DAYS        YEARS
                    -----------------------------------------------------------
   TIME STEP LENGTH 2.07051E+05  3450.8      57.514      2.3964     6.56105E-03
 STRESS PERIOD TIME 7.43051E+05  12384.      206.40      8.6001     2.35459E-02
         TOTAL TIME 3.96230E+07 6.60384E+05  11006.      458.60      1.2556    
1
 -------------------------------------------------------------------------------------
 
 SOLVING FOR HEAD 

 Outer-Iteration  Inner-Iteration  Backtracking  Number of        Incoming       Outgoing  Maximum HeadChange      Maximum Head Change
     Number           Count           Flag       Backtracks       Residual       Residual           Value              Location
        1                             0             0          0.359192E-01     0.359192E-01
        1                6                                                                       -0.127776                   400           GWF-node number
        1                6                                                                       -0.120833                     3           CLN-node number
        2                             0             0          0.746722E-07     0.746722E-07
        2                1                                                                        0.138604E-07               401           GWF-node number
        2                1                                                                        0.214338E-07                 1           CLN-node number
     2 CALLS TO SPARSE MATRIX SOLVER PACKAGE  IN FLOW TIME STEP       6 STRESS PERIOD      16

 TOTAL OF       2OUTER ITERATIONS
  MAXIMUM CHANGE FOR EACH ITERATION:
   MAX. CHANGE        NODE  MAX. CHANGE        NODE  MAX. CHANGE        NODE  MAX. CHANGE        NODE  MAX. CHANGE        NODE
 ------------------------------------------------------------------------------------------------------------------------------------
  -0.12778    ,        400  0.13860E-07,        401

  MAXIMUM CHANGE FOR CLN NODE AT EACH ITERATION:
   MAX. CHANGE    CLN-CELL  MAX. CHANGE    CLN-CELL  MAX. CHANGE    CLN-CELL  MAX. CHANGE    CLN-CELL  MAX. CHANGE    CLN-CELL
 ------------------------------------------------------------------------------------------------------------------------------------
  -0.12083    ,          3  0.21434E-07,          1

 HEAD/DRAWDOWN PRINTOUT FLAG = 1     TOTAL BUDGET PRINTOUT FLAG = 1
 CELL-BY-CELL FLOW TERM FLAG = 1
 CONCENTRATION PRINTOUT FLAG = 1

 OUTPUT FLAGS FOR ALL LAYERS ARE THE SAME:
   HEAD    DRAWDOWN  HEAD  DRAWDOWN    CONC    CONC
 PRINTOUT  PRINTOUT  SAVE    SAVE    PRINTOUT  SAVE
 ---------------------------------------------------
     0         0       1       1       0       1
 UBUDSVU SAVING "         STORAGE" ON UNIT  50 AT TIME STEP      6, STRESS PERIOD     16
 UBUDSV SAVING "     CLN STORAGE" ON UNIT 144 AT TIME STEP      6, STRESS PERIOD      16
 UBUDSVU SAVING "   CONSTANT HEAD" ON UNIT  50 AT TIME STEP      6, STRESS PERIOD     16
 UBUDSVU SAVING "   FLOW JA FACE " ON UNIT  50 AT TIME STEP      6, STRESS PERIOD     16
 UBUDSVU SAVING "             CLN" ON UNIT  50 AT TIME STEP      6, STRESS PERIOD     16
 UBUDSVU SAVING "  CLN CONST HEAD" ON UNIT 144 AT TIME STEP      6, STRESS PERIOD     16
 UBUDSVU SAVING "   FLOW CLN FACE" ON UNIT 144 AT TIME STEP      6, STRESS PERIOD     16
 UBUDSVU SAVING "             GWF" ON UNIT 144 AT TIME STEP      6, STRESS PERIOD     16
 UBUDSVU SAVING "           WELLS" ON UNIT  50 AT TIME STEP      6, STRESS PERIOD     16
 UBUDSVU SAVING "           WELLS" ON UNIT 144 AT TIME STEP      6, STRESS PERIOD     16

 HEAD WILL BE SAVED ON UNIT       30 AT END OF TIME STEP        6, STRESS PERIOD       16

 DRAWDOWN WILL BE SAVED ON UNIT   31 AT END OF TIME STEP   6, STRESS PERIOD   16

 CLN HEAD WILL BE SAVED ON UNIT   77 AT END OF TIME STEP   6, STRESS PERIOD   16
1
  VOLUMETRIC BUDGET FOR ENTIRE MODEL AT END OF TIME STEP       6 IN STRESS PERIOD      16
  ---------------------------------------------------------------------------------------

     CUMULATIVE VOLUMES      L**3       RATES FOR THIS TIME STEP      L**3/T
     ------------------                 ------------------------

           IN:                                      IN:
           ---                                      ---
             STORAGE =        2307.1908               STORAGE =           4.9970
         CLN STORAGE =           0.1883           CLN STORAGE =       2.9701E-03
       CONSTANT HEAD =           0.0000         CONSTANT HEAD =           0.0000
      CLN CONST HEAD =           0.0000        CLN CONST HEAD =           0.0000
               WELLS =           0.0000                 WELLS =           0.0000

            TOTAL IN =        2307.3791              TOTAL IN =           5.0000

          OUT:                                     OUT:
          ----                                     ----
             STORAGE =           0.0000               STORAGE =           0.0000
         CLN STORAGE =           0.0000           CLN STORAGE =           0.0000
       CONSTANT HEAD =           0.0000         CONSTANT HEAD =           0.0000
      CLN CONST HEAD =           0.0000        CLN CONST HEAD =           0.0000
               WELLS =        2307.3791                 WELLS =           5.0000

           TOTAL OUT =        2307.3791             TOTAL OUT =           5.0000

            IN - OUT =       2.1028E-05              IN - OUT =       6.6281E-08

 PERCENT DISCREPANCY =           0.00     PERCENT DISCREPANCY =           0.00






          TIME SUMMARY AT END OF TIME STEP         6 IN STRESS PERIOD        16
                    SECONDS     MINUTES      HOURS       DAYS        YEARS
                    -----------------------------------------------------------
   TIME STEP LENGTH 2.48461E+05  4141.0      69.017      2.8757     7.87326E-03
 STRESS PERIOD TIME 9.91512E+05  16525.      275.42      11.476     3.14191E-02
         TOTAL TIME 3.98715E+07 6.64525E+05  11075.      461.48      1.2635    
1
 ------------------------------------------------------------------------------------------------------------
 
 SOLVING FOR TRANSPORT 

 ------------------------------------------------------------------------------------------------------------------------
     1 CALLS TO SPARSE MATRIX SOLVER PACKAGE IN TRANSPORT TIME STEP       6 STRESS PERIOD      16 SPECIES  1

 TOTAL OF       1OUTER ITERATIONS
  MAXIMUM CHANGE FOR EACH ITERATION:
   MAX. CHANGE        NODE  MAX. CHANGE        NODE  MAX. CHANGE        NODE  MAX. CHANGE        NODE  MAX. CHANGE        NODE
 ------------------------------------------------------------------------------------------------------------------------------------
  -0.57201E-11,        191

  MAXIMUM CHANGE FOR CLN NODE AT EACH ITERATION:
   MAX. CHANGE    CLN-CELL  MAX. CHANGE    CLN-CELL  MAX. CHANGE    CLN-CELL  MAX. CHANGE    CLN-CELL  MAX. CHANGE    CLN-CELL
 ------------------------------------------------------------------------------------------------------------------------------------
   0.22508E-08,          2
     TRANSPORT SOLUTION COMPLETE FOR COMPONENT SPECIES NUMBER    1
     ------------------------------------------------------------
 UBUDSVU SAVING "    MASS STORAGE" ON UNIT 145 AT TIME STEP      6, STRESS PERIOD     16
 UBUDSVU SAVING "CLN MASS STORAGE" ON UNIT 145 AT TIME STEP      6, STRESS PERIOD     16
 UBUDSVU SAVING "CNST H MASS FLUX" ON UNIT 145 AT TIME STEP      6, STRESS PERIOD     16
 UBUDSVU SAVING "  WELL MASS FLUX" ON UNIT 145 AT TIME STEP      6, STRESS PERIOD     16

 TRANSPORT SOLUTION COMPLETE FOR ALL SPECIES, SORTING OUTPUT FOR CONCENTRATIONS AND MASS BALANCE
 ----------------------------------------------------------------------------------------------------
     TRANSPORT OUTPUT FOR COMPONENT SPECIES NUMBER    1
     ------------------------------------------------------------

 CONC WILL BE SAVED ON UNIT  132 AT END OF TIME STEP        6, STRESS PERIOD       16

 CLN CONC WILL BE SAVED ON UNIT  188 AT END OF TIME STEP   6, STRESS PERIOD   16
1
  VOLUMETRIC BUDGET FOR ENTIRE MODEL AT END OF TIME STEP       6 IN STRESS PERIOD      16
  ---------------------------------------------------------------------------------------

     CUMULATIVE VOLUMES      L**3       RATES FOR THIS TIME STEP      L**3/T
     ------------------                 ------------------------

           IN:                                      IN:
           ---                                      ---
        MASS STORAGE =         230.7379          MASS STORAGE =           0.5000
    CNST H MASS FLUX =           0.0000      CNST H MASS FLUX =           0.0000
      WELL MASS FLUX =           0.0000        WELL MASS FLUX =           0.0000

            TOTAL IN =         230.7379              TOTAL IN =           0.5000

          OUT:                                     OUT:
          ----                                     ----
        MASS STORAGE =           0.2827          MASS STORAGE =       4.5293E-10
    CNST H MASS FLUX =           0.0000      CNST H MASS FLUX =           0.0000
      WELL MASS FLUX =         230.4552        WELL MASS FLUX =           0.5000

           TOTAL OUT =         230.7379             TOTAL OUT =           0.5000

            IN - OUT =       3.9938E-10              IN - OUT =      -4.5293E-10

 PERCENT DISCREPANCY =           0.00     PERCENT DISCREPANCY =          -0.00






          TIME SUMMARY AT END OF TIME STEP         6 IN STRESS PERIOD        16
                    SECONDS     MINUTES      HOURS       DAYS        YEARS
                    -----------------------------------------------------------
   TIME STEP LENGTH 2.48461E+05  4141.0      69.017      2.8757     7.87326E-03
 STRESS PERIOD TIME 9.91512E+05  16525.      275.42      11.476     3.14191E-02
         TOTAL TIME 3.98715E+07 6.64525E+05  11075.      461.48      1.2635    
1
 -------------------------------------------------------------------------------------
 
 SOLVING FOR HEAD 

 Outer-Iteration  Inner-Iteration  Backtracking  Number of        Incoming       Outgoing  Maximum HeadChange      Maximum Head Change
     Number           Count           Flag       Backtracks       Residual       Residual           Value              Location
        1                             0             0          0.358724E-01     0.358724E-01
        1                6                                                                       -0.153112                   400           GWF-node number
        1                6                                                                       -0.144821                     3           CLN-node number
        2                             0             0          0.158711E-06     0.158711E-06
        2                1                                                                        0.432030E-07               416           GWF-node number
        2                1                                                                        0.293908E-07                 1           CLN-node number
     2 CALLS TO SPARSE MATRIX SOLVER PACKAGE  IN FLOW TIME STEP       7 STRESS PERIOD      16

 TOTAL OF       2OUTER ITERATIONS
  MAXIMUM CHANGE FOR EACH ITERATION:
   MAX. CHANGE        NODE  MAX. CHANGE        NODE  MAX. CHANGE        NODE  MAX. CHANGE        NODE  MAX. CHANGE        NODE
 ------------------------------------------------------------------------------------------------------------------------------------
  -0.15311    ,        400  0.43203E-07,        416

  MAXIMUM CHANGE FOR CLN NODE AT EACH ITERATION:
   MAX. CHANGE    CLN-CELL  MAX. CHANGE    CLN-CELL  MAX. CHANGE    CLN-CELL  MAX. CHANGE    CLN-CELL  MAX. CHANGE    CLN-CELL
 ------------------------------------------------------------------------------------------------------------------------------------
  -0.14482    ,          3  0.29391E-07,          1

 HEAD/DRAWDOWN PRINTOUT FLAG = 1     TOTAL BUDGET PRINTOUT FLAG = 1
 CELL-BY-CELL FLOW TERM FLAG = 1
 CONCENTRATION PRINTOUT FLAG = 1

 OUTPUT FLAGS FOR ALL LAYERS ARE THE SAME:
   HEAD    DRAWDOWN  HEAD  DRAWDOWN    CONC    CONC
 PRINTOUT  PRINTOUT  SAVE    SAVE    PRINTOUT  SAVE
 ---------------------------------------------------
     0         0       1       1       0       1
 UBUDSVU SAVING "         STORAGE" ON UNIT  50 AT TIME STEP      7, STRESS PERIOD     16
 UBUDSV SAVING "     CLN STORAGE" ON UNIT 144 AT TIME STEP      7, STRESS PERIOD      16
 UBUDSVU SAVING "   CONSTANT HEAD" ON UNIT  50 AT TIME STEP      7, STRESS PERIOD     16
 UBUDSVU SAVING "   FLOW JA FACE " ON UNIT  50 AT TIME STEP      7, STRESS PERIOD     16
 UBUDSVU SAVING "             CLN" ON UNIT  50 AT TIME STEP      7, STRESS PERIOD     16
 UBUDSVU SAVING "  CLN CONST HEAD" ON UNIT 144 AT TIME STEP      7, STRESS PERIOD     16
 UBUDSVU SAVING "   FLOW CLN FACE" ON UNIT 144 AT TIME STEP      7, STRESS PERIOD     16
 UBUDSVU SAVING "             GWF" ON UNIT 144 AT TIME STEP      7, STRESS PERIOD     16
 UBUDSVU SAVING "           WELLS" ON UNIT  50 AT TIME STEP      7, STRESS PERIOD     16
 UBUDSVU SAVING "           WELLS" ON UNIT 144 AT TIME STEP      7, STRESS PERIOD     16

 HEAD WILL BE SAVED ON UNIT       30 AT END OF TIME STEP        7, STRESS PERIOD       16

 DRAWDOWN WILL BE SAVED ON UNIT   31 AT END OF TIME STEP   7, STRESS PERIOD   16

 CLN HEAD WILL BE SAVED ON UNIT   77 AT END OF TIME STEP   7, STRESS PERIOD   16
1
  VOLUMETRIC BUDGET FOR ENTIRE MODEL AT END OF TIME STEP       7 IN STRESS PERIOD      16
  ---------------------------------------------------------------------------------------

     CUMULATIVE VOLUMES      L**3       RATES FOR THIS TIME STEP      L**3/T
     ------------------                 ------------------------

           IN:                                      IN:
           ---                                      ---
             STORAGE =        2324.4348               STORAGE =           4.9970
         CLN STORAGE =           0.1985           CLN STORAGE =       2.9665E-03
       CONSTANT HEAD =           0.0000         CONSTANT HEAD =           0.0000
      CLN CONST HEAD =           0.0000        CLN CONST HEAD =           0.0000
               WELLS =           0.0000                 WELLS =           0.0000

            TOTAL IN =        2324.6334              TOTAL IN =           5.0000

          OUT:                                     OUT:
          ----                                     ----
             STORAGE =           0.0000               STORAGE =           0.0000
         CLN STORAGE =           0.0000           CLN STORAGE =           0.0000
       CONSTANT HEAD =           0.0000         CONSTANT HEAD =           0.0000
      CLN CONST HEAD =           0.0000        CLN CONST HEAD =           0.0000
               WELLS =        2324.6333                 WELLS =           5.0000

           TOTAL OUT =        2324.6333             TOTAL OUT =           5.0000

            IN - OUT =       2.0979E-05              IN - OUT =      -1.4032E-08

 PERCENT DISCREPANCY =           0.00     PERCENT DISCREPANCY =          -0.00






          TIME SUMMARY AT END OF TIME STEP         7 IN STRESS PERIOD        16
                    SECONDS     MINUTES      HOURS       DAYS        YEARS
                    -----------------------------------------------------------
   TIME STEP LENGTH 2.98153E+05  4969.2      82.820      3.4509     9.44791E-03
 STRESS PERIOD TIME 1.28967E+06  21494.      358.24      14.927     4.08670E-02
         TOTAL TIME 4.01697E+07 6.69494E+05  11158.      464.93      1.2729    
1
 ------------------------------------------------------------------------------------------------------------
 
 SOLVING FOR TRANSPORT 

 ------------------------------------------------------------------------------------------------------------------------
     1 CALLS TO SPARSE MATRIX SOLVER PACKAGE IN TRANSPORT TIME STEP       7 STRESS PERIOD      16 SPECIES  1

 TOTAL OF       1OUTER ITERATIONS
  MAXIMUM CHANGE FOR EACH ITERATION:
   MAX. CHANGE        NODE  MAX. CHANGE        NODE  MAX. CHANGE        NODE  MAX. CHANGE        NODE  MAX. CHANGE        NODE
 ------------------------------------------------------------------------------------------------------------------------------------
  -0.56777E-11,        191

  MAXIMUM CHANGE FOR CLN NODE AT EACH ITERATION:
   MAX. CHANGE    CLN-CELL  MAX. CHANGE    CLN-CELL  MAX. CHANGE    CLN-CELL  MAX. CHANGE    CLN-CELL  MAX. CHANGE    CLN-CELL
 ------------------------------------------------------------------------------------------------------------------------------------
  -0.20017E-08,          2
     TRANSPORT SOLUTION COMPLETE FOR COMPONENT SPECIES NUMBER    1
     ------------------------------------------------------------
 UBUDSVU SAVING "    MASS STORAGE" ON UNIT 145 AT TIME STEP      7, STRESS PERIOD     16
 UBUDSVU SAVING "CLN MASS STORAGE" ON UNIT 145 AT TIME STEP      7, STRESS PERIOD     16
 UBUDSVU SAVING "CNST H MASS FLUX" ON UNIT 145 AT TIME STEP      7, STRESS PERIOD     16
 UBUDSVU SAVING "  WELL MASS FLUX" ON UNIT 145 AT TIME STEP      7, STRESS PERIOD     16

 TRANSPORT SOLUTION COMPLETE FOR ALL SPECIES, SORTING OUTPUT FOR CONCENTRATIONS AND MASS BALANCE
 ----------------------------------------------------------------------------------------------------
     TRANSPORT OUTPUT FOR COMPONENT SPECIES NUMBER    1
     ------------------------------------------------------------

 CONC WILL BE SAVED ON UNIT  132 AT END OF TIME STEP        7, STRESS PERIOD       16

 CLN CONC WILL BE SAVED ON UNIT  188 AT END OF TIME STEP   7, STRESS PERIOD   16
1
  VOLUMETRIC BUDGET FOR ENTIRE MODEL AT END OF TIME STEP       7 IN STRESS PERIOD      16
  ---------------------------------------------------------------------------------------

     CUMULATIVE VOLUMES      L**3       RATES FOR THIS TIME STEP      L**3/T
     ------------------                 ------------------------

           IN:                                      IN:
           ---                                      ---
        MASS STORAGE =         232.4633          MASS STORAGE =           0.5000
    CNST H MASS FLUX =           0.0000      CNST H MASS FLUX =           0.0000
      WELL MASS FLUX =           0.0000        WELL MASS FLUX =           0.0000

            TOTAL IN =         232.4633              TOTAL IN =           0.5000

          OUT:                                     OUT:
          ----                                     ----
        MASS STORAGE =           0.2827          MASS STORAGE =           0.0000
    CNST H MASS FLUX =           0.0000      CNST H MASS FLUX =           0.0000
      WELL MASS FLUX =         232.1806        WELL MASS FLUX =           0.5000

           TOTAL OUT =         232.4633             TOTAL OUT =           0.5000

            IN - OUT =       3.9830E-10              IN - OUT =           0.0000

 PERCENT DISCREPANCY =           0.00     PERCENT DISCREPANCY =           0.00






          TIME SUMMARY AT END OF TIME STEP         7 IN STRESS PERIOD        16
                    SECONDS     MINUTES      HOURS       DAYS        YEARS
                    -----------------------------------------------------------
   TIME STEP LENGTH 2.98153E+05  4969.2      82.820      3.4509     9.44791E-03
 STRESS PERIOD TIME 1.28967E+06  21494.      358.24      14.927     4.08670E-02
         TOTAL TIME 4.01697E+07 6.69494E+05  11158.      464.93      1.2729    
1
 -------------------------------------------------------------------------------------
 
 SOLVING FOR HEAD 

 Outer-Iteration  Inner-Iteration  Backtracking  Number of        Incoming       Outgoing  Maximum HeadChange      Maximum Head Change
     Number           Count           Flag       Backtracks       Residual       Residual           Value              Location
        1                             0             0          0.358167E-01     0.358167E-01
        1                6                                                                       -0.183422                   400           GWF-node number
        1                6                                                                       -0.173530                     2           CLN-node number
        2                             0             0          0.338435E-06     0.338435E-06
        2                1                                                                        0.127116E-06               416           GWF-node number
        2                1                                                                       -0.541110E-07                 2           CLN-node number
     2 CALLS TO SPARSE MATRIX SOLVER PACKAGE  IN FLOW TIME STEP       8 STRESS PERIOD      16

 TOTAL OF       2OUTER ITERATIONS
  MAXIMUM CHANGE FOR EACH ITERATION:
   MAX. CHANGE        NODE  MAX. CHANGE        NODE  MAX. CHANGE        NODE  MAX. CHANGE        NODE  MAX. CHANGE        NODE
 ------------------------------------------------------------------------------------------------------------------------------------
  -0.18342    ,        400  0.12712E-06,        416

  MAXIMUM CHANGE FOR CLN NODE AT EACH ITERATION:
   MAX. CHANGE    CLN-CELL  MAX. CHANGE    CLN-CELL  MAX. CHANGE    CLN-CELL  MAX. CHANGE    CLN-CELL  MAX. CHANGE    CLN-CELL
 ------------------------------------------------------------------------------------------------------------------------------------
  -0.17353    ,          2 -0.54111E-07,          2

 HEAD/DRAWDOWN PRINTOUT FLAG = 1     TOTAL BUDGET PRINTOUT FLAG = 1
 CELL-BY-CELL FLOW TERM FLAG = 1
 CONCENTRATION PRINTOUT FLAG = 1

 OUTPUT FLAGS FOR ALL LAYERS ARE THE SAME:
   HEAD    DRAWDOWN  HEAD  DRAWDOWN    CONC    CONC
 PRINTOUT  PRINTOUT  SAVE    SAVE    PRINTOUT  SAVE
 ---------------------------------------------------
     0         0       1       1       0       1
 UBUDSVU SAVING "         STORAGE" ON UNIT  50 AT TIME STEP      8, STRESS PERIOD     16
 UBUDSV SAVING "     CLN STORAGE" ON UNIT 144 AT TIME STEP      8, STRESS PERIOD      16
 UBUDSVU SAVING "   CONSTANT HEAD" ON UNIT  50 AT TIME STEP      8, STRESS PERIOD     16
 UBUDSVU SAVING "   FLOW JA FACE " ON UNIT  50 AT TIME STEP      8, STRESS PERIOD     16
 UBUDSVU SAVING "             CLN" ON UNIT  50 AT TIME STEP      8, STRESS PERIOD     16
 UBUDSVU SAVING "  CLN CONST HEAD" ON UNIT 144 AT TIME STEP      8, STRESS PERIOD     16
 UBUDSVU SAVING "   FLOW CLN FACE" ON UNIT 144 AT TIME STEP      8, STRESS PERIOD     16
 UBUDSVU SAVING "             GWF" ON UNIT 144 AT TIME STEP      8, STRESS PERIOD     16
 UBUDSVU SAVING "           WELLS" ON UNIT  50 AT TIME STEP      8, STRESS PERIOD     16
 UBUDSVU SAVING "           WELLS" ON UNIT 144 AT TIME STEP      8, STRESS PERIOD     16

 HEAD WILL BE SAVED ON UNIT       30 AT END OF TIME STEP        8, STRESS PERIOD       16

 DRAWDOWN WILL BE SAVED ON UNIT   31 AT END OF TIME STEP   8, STRESS PERIOD   16

 CLN HEAD WILL BE SAVED ON UNIT   77 AT END OF TIME STEP   8, STRESS PERIOD   16
1
  VOLUMETRIC BUDGET FOR ENTIRE MODEL AT END OF TIME STEP       8 IN STRESS PERIOD      16
  ---------------------------------------------------------------------------------------

     CUMULATIVE VOLUMES      L**3       RATES FOR THIS TIME STEP      L**3/T
     ------------------                 ------------------------

           IN:                                      IN:
           ---                                      ---
             STORAGE =        2345.1276               STORAGE =           4.9970
         CLN STORAGE =           0.2108           CLN STORAGE =       2.9621E-03
       CONSTANT HEAD =           0.0000         CONSTANT HEAD =           0.0000
      CLN CONST HEAD =           0.0000        CLN CONST HEAD =           0.0000
               WELLS =           0.0000                 WELLS =           0.0000

            TOTAL IN =        2345.3385              TOTAL IN =           5.0000

          OUT:                                     OUT:
          ----                                     ----
             STORAGE =           0.0000               STORAGE =           0.0000
         CLN STORAGE =           0.0000           CLN STORAGE =           0.0000
       CONSTANT HEAD =           0.0000         CONSTANT HEAD =           0.0000
      CLN CONST HEAD =           0.0000        CLN CONST HEAD =           0.0000
               WELLS =        2345.3384                 WELLS =           5.0000

           TOTAL OUT =        2345.3384             TOTAL OUT =           5.0000

            IN - OUT =       2.1033E-05              IN - OUT =       1.2867E-08

 PERCENT DISCREPANCY =           0.00     PERCENT DISCREPANCY =           0.00






          TIME SUMMARY AT END OF TIME STEP         8 IN STRESS PERIOD        16
                    SECONDS     MINUTES      HOURS       DAYS        YEARS
                    -----------------------------------------------------------
   TIME STEP LENGTH 3.57784E+05  5963.1      99.384      4.1410     1.13375E-02
 STRESS PERIOD TIME 1.64745E+06  27457.      457.62      19.068     5.22045E-02
         TOTAL TIME 4.05274E+07 6.75457E+05  11258.      469.07      1.2842    
1
 ------------------------------------------------------------------------------------------------------------
 
 SOLVING FOR TRANSPORT 

 ------------------------------------------------------------------------------------------------------------------------
     1 CALLS TO SPARSE MATRIX SOLVER PACKAGE IN TRANSPORT TIME STEP       8 STRESS PERIOD      16 SPECIES  1

 TOTAL OF       1OUTER ITERATIONS
  MAXIMUM CHANGE FOR EACH ITERATION:
   MAX. CHANGE        NODE  MAX. CHANGE        NODE  MAX. CHANGE        NODE  MAX. CHANGE        NODE  MAX. CHANGE        NODE
 ------------------------------------------------------------------------------------------------------------------------------------
  -0.21419E-10,        191

  MAXIMUM CHANGE FOR CLN NODE AT EACH ITERATION:
   MAX. CHANGE    CLN-CELL  MAX. CHANGE    CLN-CELL  MAX. CHANGE    CLN-CELL  MAX. CHANGE    CLN-CELL  MAX. CHANGE    CLN-CELL
 ------------------------------------------------------------------------------------------------------------------------------------
   0.88074E-09,          3
     TRANSPORT SOLUTION COMPLETE FOR COMPONENT SPECIES NUMBER    1
     ------------------------------------------------------------
 UBUDSVU SAVING "    MASS STORAGE" ON UNIT 145 AT TIME STEP      8, STRESS PERIOD     16
 UBUDSVU SAVING "CLN MASS STORAGE" ON UNIT 145 AT TIME STEP      8, STRESS PERIOD     16
 UBUDSVU SAVING "CNST H MASS FLUX" ON UNIT 145 AT TIME STEP      8, STRESS PERIOD     16
 UBUDSVU SAVING "  WELL MASS FLUX" ON UNIT 145 AT TIME STEP      8, STRESS PERIOD     16

 TRANSPORT SOLUTION COMPLETE FOR ALL SPECIES, SORTING OUTPUT FOR CONCENTRATIONS AND MASS BALANCE
 ----------------------------------------------------------------------------------------------------
     TRANSPORT OUTPUT FOR COMPONENT SPECIES NUMBER    1
     ------------------------------------------------------------

 CONC WILL BE SAVED ON UNIT  132 AT END OF TIME STEP        8, STRESS PERIOD       16

 CLN CONC WILL BE SAVED ON UNIT  188 AT END OF TIME STEP   8, STRESS PERIOD   16
1
  VOLUMETRIC BUDGET FOR ENTIRE MODEL AT END OF TIME STEP       8 IN STRESS PERIOD      16
  ---------------------------------------------------------------------------------------

     CUMULATIVE VOLUMES      L**3       RATES FOR THIS TIME STEP      L**3/T
     ------------------                 ------------------------

           IN:                                      IN:
           ---                                      ---
        MASS STORAGE =         234.5339          MASS STORAGE =           0.5000
    CNST H MASS FLUX =           0.0000      CNST H MASS FLUX =           0.0000
      WELL MASS FLUX =           0.0000        WELL MASS FLUX =           0.0000

            TOTAL IN =         234.5339              TOTAL IN =           0.5000

          OUT:                                     OUT:
          ----                                     ----
        MASS STORAGE =           0.2827          MASS STORAGE =       2.9810E-10
    CNST H MASS FLUX =           0.0000      CNST H MASS FLUX =           0.0000
      WELL MASS FLUX =         234.2511        WELL MASS FLUX =           0.5000

           TOTAL OUT =         234.5339             TOTAL OUT =           0.5000

            IN - OUT =       3.8551E-10              IN - OUT =      -2.9810E-10

 PERCENT DISCREPANCY =           0.00     PERCENT DISCREPANCY =          -0.00






          TIME SUMMARY AT END OF TIME STEP         8 IN STRESS PERIOD        16
                    SECONDS     MINUTES      HOURS       DAYS        YEARS
                    -----------------------------------------------------------
   TIME STEP LENGTH 3.57784E+05  5963.1      99.384      4.1410     1.13375E-02
 STRESS PERIOD TIME 1.64745E+06  27457.      457.62      19.068     5.22045E-02
         TOTAL TIME 4.05274E+07 6.75457E+05  11258.      469.07      1.2842    
1
 -------------------------------------------------------------------------------------
 
 SOLVING FOR HEAD 

 Outer-Iteration  Inner-Iteration  Backtracking  Number of        Incoming       Outgoing  Maximum HeadChange      Maximum Head Change
     Number           Count           Flag       Backtracks       Residual       Residual           Value              Location
        1                             0             0          0.357506E-01     0.357506E-01
        1                6                                                                       -0.219658                   400           GWF-node number
        1                6                                                                       -0.207870                     2           CLN-node number
        2                             0             0          0.726149E-06     0.726149E-06
        2                1                                                                        0.346896E-06               416           GWF-node number
        2                1                                                                        0.261264E-06                 1           CLN-node number
     2 CALLS TO SPARSE MATRIX SOLVER PACKAGE  IN FLOW TIME STEP       9 STRESS PERIOD      16

 TOTAL OF       2OUTER ITERATIONS
  MAXIMUM CHANGE FOR EACH ITERATION:
   MAX. CHANGE        NODE  MAX. CHANGE        NODE  MAX. CHANGE        NODE  MAX. CHANGE        NODE  MAX. CHANGE        NODE
 ------------------------------------------------------------------------------------------------------------------------------------
  -0.21966    ,        400  0.34690E-06,        416

  MAXIMUM CHANGE FOR CLN NODE AT EACH ITERATION:
   MAX. CHANGE    CLN-CELL  MAX. CHANGE    CLN-CELL  MAX. CHANGE    CLN-CELL  MAX. CHANGE    CLN-CELL  MAX. CHANGE    CLN-CELL
 ------------------------------------------------------------------------------------------------------------------------------------
  -0.20787    ,          2  0.26126E-06,          1

 HEAD/DRAWDOWN PRINTOUT FLAG = 1     TOTAL BUDGET PRINTOUT FLAG = 1
 CELL-BY-CELL FLOW TERM FLAG = 1
 CONCENTRATION PRINTOUT FLAG = 1

 OUTPUT FLAGS FOR ALL LAYERS ARE THE SAME:
   HEAD    DRAWDOWN  HEAD  DRAWDOWN    CONC    CONC
 PRINTOUT  PRINTOUT  SAVE    SAVE    PRINTOUT  SAVE
 ---------------------------------------------------
     0         0       1       1       0       1
 UBUDSVU SAVING "         STORAGE" ON UNIT  50 AT TIME STEP      9, STRESS PERIOD     16
 UBUDSV SAVING "     CLN STORAGE" ON UNIT 144 AT TIME STEP      9, STRESS PERIOD      16
 UBUDSVU SAVING "   CONSTANT HEAD" ON UNIT  50 AT TIME STEP      9, STRESS PERIOD     16
 UBUDSVU SAVING "   FLOW JA FACE " ON UNIT  50 AT TIME STEP      9, STRESS PERIOD     16
 UBUDSVU SAVING "             CLN" ON UNIT  50 AT TIME STEP      9, STRESS PERIOD     16
 UBUDSVU SAVING "  CLN CONST HEAD" ON UNIT 144 AT TIME STEP      9, STRESS PERIOD     16
 UBUDSVU SAVING "   FLOW CLN FACE" ON UNIT 144 AT TIME STEP      9, STRESS PERIOD     16
 UBUDSVU SAVING "             GWF" ON UNIT 144 AT TIME STEP      9, STRESS PERIOD     16
 UBUDSVU SAVING "           WELLS" ON UNIT  50 AT TIME STEP      9, STRESS PERIOD     16
 UBUDSVU SAVING "           WELLS" ON UNIT 144 AT TIME STEP      9, STRESS PERIOD     16

 HEAD WILL BE SAVED ON UNIT       30 AT END OF TIME STEP        9, STRESS PERIOD       16

 DRAWDOWN WILL BE SAVED ON UNIT   31 AT END OF TIME STEP   9, STRESS PERIOD   16

 CLN HEAD WILL BE SAVED ON UNIT   77 AT END OF TIME STEP   9, STRESS PERIOD   16
1
  VOLUMETRIC BUDGET FOR ENTIRE MODEL AT END OF TIME STEP       9 IN STRESS PERIOD      16
  ---------------------------------------------------------------------------------------

     CUMULATIVE VOLUMES      L**3       RATES FOR THIS TIME STEP      L**3/T
     ------------------                 ------------------------

           IN:                                      IN:
           ---                                      ---
             STORAGE =        2369.9591               STORAGE =           4.9970
         CLN STORAGE =           0.2255           CLN STORAGE =       2.9569E-03
       CONSTANT HEAD =           0.0000         CONSTANT HEAD =           0.0000
      CLN CONST HEAD =           0.0000        CLN CONST HEAD =           0.0000
               WELLS =           0.0000                 WELLS =           0.0000

            TOTAL IN =        2370.1846              TOTAL IN =           5.0000

          OUT:                                     OUT:
          ----                                     ----
             STORAGE =           0.0000               STORAGE =           0.0000
         CLN STORAGE =           0.0000           CLN STORAGE =           0.0000
       CONSTANT HEAD =           0.0000         CONSTANT HEAD =           0.0000
      CLN CONST HEAD =           0.0000        CLN CONST HEAD =           0.0000
               WELLS =        2370.1846                 WELLS =           5.0000

           TOTAL OUT =        2370.1846             TOTAL OUT =           5.0000

            IN - OUT =       2.0929E-05              IN - OUT =      -2.0839E-08

 PERCENT DISCREPANCY =           0.00     PERCENT DISCREPANCY =          -0.00






          TIME SUMMARY AT END OF TIME STEP         9 IN STRESS PERIOD        16
                    SECONDS     MINUTES      HOURS       DAYS        YEARS
                    -----------------------------------------------------------
   TIME STEP LENGTH 4.29341E+05  7155.7      119.26      4.9692     1.36050E-02
 STRESS PERIOD TIME 2.07679E+06  34613.      576.89      24.037     6.58095E-02
         TOTAL TIME 4.09568E+07 6.82613E+05  11377.      474.04      1.2978    
1
 ------------------------------------------------------------------------------------------------------------
 
 SOLVING FOR TRANSPORT 

 ------------------------------------------------------------------------------------------------------------------------
     1 CALLS TO SPARSE MATRIX SOLVER PACKAGE IN TRANSPORT TIME STEP       9 STRESS PERIOD      16 SPECIES  1

 TOTAL OF       1OUTER ITERATIONS
  MAXIMUM CHANGE FOR EACH ITERATION:
   MAX. CHANGE        NODE  MAX. CHANGE        NODE  MAX. CHANGE        NODE  MAX. CHANGE        NODE  MAX. CHANGE        NODE
 ------------------------------------------------------------------------------------------------------------------------------------
   0.39025E-10,        191

  MAXIMUM CHANGE FOR CLN NODE AT EACH ITERATION:
   MAX. CHANGE    CLN-CELL  MAX. CHANGE    CLN-CELL  MAX. CHANGE    CLN-CELL  MAX. CHANGE    CLN-CELL  MAX. CHANGE    CLN-CELL
 ------------------------------------------------------------------------------------------------------------------------------------
  -0.13245E-08,          3
     TRANSPORT SOLUTION COMPLETE FOR COMPONENT SPECIES NUMBER    1
     ------------------------------------------------------------
 UBUDSVU SAVING "    MASS STORAGE" ON UNIT 145 AT TIME STEP      9, STRESS PERIOD     16
 UBUDSVU SAVING "CLN MASS STORAGE" ON UNIT 145 AT TIME STEP      9, STRESS PERIOD     16
 UBUDSVU SAVING "CNST H MASS FLUX" ON UNIT 145 AT TIME STEP      9, STRESS PERIOD     16
 UBUDSVU SAVING "  WELL MASS FLUX" ON UNIT 145 AT TIME STEP      9, STRESS PERIOD     16

 TRANSPORT SOLUTION COMPLETE FOR ALL SPECIES, SORTING OUTPUT FOR CONCENTRATIONS AND MASS BALANCE
 ----------------------------------------------------------------------------------------------------
     TRANSPORT OUTPUT FOR COMPONENT SPECIES NUMBER    1
     ------------------------------------------------------------

 CONC WILL BE SAVED ON UNIT  132 AT END OF TIME STEP        9, STRESS PERIOD       16

 CLN CONC WILL BE SAVED ON UNIT  188 AT END OF TIME STEP   9, STRESS PERIOD   16
1
  VOLUMETRIC BUDGET FOR ENTIRE MODEL AT END OF TIME STEP       9 IN STRESS PERIOD      16
  ---------------------------------------------------------------------------------------

     CUMULATIVE VOLUMES      L**3       RATES FOR THIS TIME STEP      L**3/T
     ------------------                 ------------------------

           IN:                                      IN:
           ---                                      ---
        MASS STORAGE =         237.0185          MASS STORAGE =           0.5000
    CNST H MASS FLUX =           0.0000      CNST H MASS FLUX =           0.0000
      WELL MASS FLUX =           0.0000        WELL MASS FLUX =           0.0000

            TOTAL IN =         237.0185              TOTAL IN =           0.5000

          OUT:                                     OUT:
          ----                                     ----
        MASS STORAGE =           0.2827          MASS STORAGE =           0.0000
    CNST H MASS FLUX =           0.0000      CNST H MASS FLUX =           0.0000
      WELL MASS FLUX =         236.7357        WELL MASS FLUX =           0.5000

           TOTAL OUT =         237.0185             TOTAL OUT =           0.5000

            IN - OUT =       4.2888E-10              IN - OUT =           0.0000

 PERCENT DISCREPANCY =           0.00     PERCENT DISCREPANCY =           0.00






          TIME SUMMARY AT END OF TIME STEP         9 IN STRESS PERIOD        16
                    SECONDS     MINUTES      HOURS       DAYS        YEARS
                    -----------------------------------------------------------
   TIME STEP LENGTH 4.29341E+05  7155.7      119.26      4.9692     1.36050E-02
 STRESS PERIOD TIME 2.07679E+06  34613.      576.89      24.037     6.58095E-02
         TOTAL TIME 4.09568E+07 6.82613E+05  11377.      474.04      1.2978    
1
 -------------------------------------------------------------------------------------
 
 SOLVING FOR HEAD 

 Outer-Iteration  Inner-Iteration  Backtracking  Number of        Incoming       Outgoing  Maximum HeadChange      Maximum Head Change
     Number           Count           Flag       Backtracks       Residual       Residual           Value              Location
        1                             0             0          0.356723E-01     0.356723E-01
        1                7                                                                       -0.262951                   400           GWF-node number
        1                7                                                                       -0.248921                     2           CLN-node number
        2                             0             0          0.156918E-05     0.156918E-05
        2                1                                                                        0.611920E-07               190           GWF-node number
        2                1                                                                        0.127978E-06                 1           CLN-node number
     2 CALLS TO SPARSE MATRIX SOLVER PACKAGE  IN FLOW TIME STEP      10 STRESS PERIOD      16

 TOTAL OF       2OUTER ITERATIONS
  MAXIMUM CHANGE FOR EACH ITERATION:
   MAX. CHANGE        NODE  MAX. CHANGE        NODE  MAX. CHANGE        NODE  MAX. CHANGE        NODE  MAX. CHANGE        NODE
 ------------------------------------------------------------------------------------------------------------------------------------
  -0.26295    ,        400  0.61192E-07,        190

  MAXIMUM CHANGE FOR CLN NODE AT EACH ITERATION:
   MAX. CHANGE    CLN-CELL  MAX. CHANGE    CLN-CELL  MAX. CHANGE    CLN-CELL  MAX. CHANGE    CLN-CELL  MAX. CHANGE    CLN-CELL
 ------------------------------------------------------------------------------------------------------------------------------------
  -0.24892    ,          2  0.12798E-06,          1

 HEAD/DRAWDOWN PRINTOUT FLAG = 1     TOTAL BUDGET PRINTOUT FLAG = 1
 CELL-BY-CELL FLOW TERM FLAG = 1
 CONCENTRATION PRINTOUT FLAG = 1

 OUTPUT FLAGS FOR ALL LAYERS ARE THE SAME:
   HEAD    DRAWDOWN  HEAD  DRAWDOWN    CONC    CONC
 PRINTOUT  PRINTOUT  SAVE    SAVE    PRINTOUT  SAVE
 ---------------------------------------------------
     0         0       1       1       0       1
 UBUDSVU SAVING "         STORAGE" ON UNIT  50 AT TIME STEP     10, STRESS PERIOD     16
 UBUDSV SAVING "     CLN STORAGE" ON UNIT 144 AT TIME STEP     10, STRESS PERIOD      16
 UBUDSVU SAVING "   CONSTANT HEAD" ON UNIT  50 AT TIME STEP     10, STRESS PERIOD     16
 UBUDSVU SAVING "   FLOW JA FACE " ON UNIT  50 AT TIME STEP     10, STRESS PERIOD     16
 UBUDSVU SAVING "             CLN" ON UNIT  50 AT TIME STEP     10, STRESS PERIOD     16
 UBUDSVU SAVING "  CLN CONST HEAD" ON UNIT 144 AT TIME STEP     10, STRESS PERIOD     16
 UBUDSVU SAVING "   FLOW CLN FACE" ON UNIT 144 AT TIME STEP     10, STRESS PERIOD     16
 UBUDSVU SAVING "             GWF" ON UNIT 144 AT TIME STEP     10, STRESS PERIOD     16
 UBUDSVU SAVING "           WELLS" ON UNIT  50 AT TIME STEP     10, STRESS PERIOD     16
 UBUDSVU SAVING "           WELLS" ON UNIT 144 AT TIME STEP     10, STRESS PERIOD     16

 HEAD WILL BE SAVED ON UNIT       30 AT END OF TIME STEP       10, STRESS PERIOD       16

 DRAWDOWN WILL BE SAVED ON UNIT   31 AT END OF TIME STEP  10, STRESS PERIOD   16

 CLN HEAD WILL BE SAVED ON UNIT   77 AT END OF TIME STEP  10, STRESS PERIOD   16
1
  VOLUMETRIC BUDGET FOR ENTIRE MODEL AT END OF TIME STEP      10 IN STRESS PERIOD      16
  ---------------------------------------------------------------------------------------

     CUMULATIVE VOLUMES      L**3       RATES FOR THIS TIME STEP      L**3/T
     ------------------                 ------------------------

           IN:                                      IN:
           ---                                      ---
             STORAGE =        2399.7568               STORAGE =           4.9970
         CLN STORAGE =           0.2431           CLN STORAGE =       2.9507E-03
       CONSTANT HEAD =           0.0000         CONSTANT HEAD =           0.0000
      CLN CONST HEAD =           0.0000        CLN CONST HEAD =           0.0000
               WELLS =           0.0000                 WELLS =           0.0000

            TOTAL IN =        2399.9999              TOTAL IN =           5.0000

          OUT:                                     OUT:
          ----                                     ----
             STORAGE =           0.0000               STORAGE =           0.0000
         CLN STORAGE =           0.0000           CLN STORAGE =           0.0000
       CONSTANT HEAD =           0.0000         CONSTANT HEAD =           0.0000
      CLN CONST HEAD =           0.0000        CLN CONST HEAD =           0.0000
               WELLS =        2399.9999                 WELLS =           5.0000

           TOTAL OUT =        2399.9999             TOTAL OUT =           5.0000

            IN - OUT =       2.1128E-05              IN - OUT =       3.3370E-08

 PERCENT DISCREPANCY =           0.00     PERCENT DISCREPANCY =           0.00






          TIME SUMMARY AT END OF TIME STEP        10 IN STRESS PERIOD        16
                    SECONDS     MINUTES      HOURS       DAYS        YEARS
                    -----------------------------------------------------------
   TIME STEP LENGTH 5.15209E+05  8586.8      143.11      5.9631     1.63260E-02
 STRESS PERIOD TIME 2.59200E+06  43200.      720.00      30.000     8.21355E-02
         TOTAL TIME 4.14720E+07 6.91200E+05  11520.      480.00      1.3142    
1
 ------------------------------------------------------------------------------------------------------------
 
 SOLVING FOR TRANSPORT 

 ------------------------------------------------------------------------------------------------------------------------
     1 CALLS TO SPARSE MATRIX SOLVER PACKAGE IN TRANSPORT TIME STEP      10 STRESS PERIOD      16 SPECIES  1

 TOTAL OF       1OUTER ITERATIONS
  MAXIMUM CHANGE FOR EACH ITERATION:
   MAX. CHANGE        NODE  MAX. CHANGE        NODE  MAX. CHANGE        NODE  MAX. CHANGE        NODE  MAX. CHANGE        NODE
 ------------------------------------------------------------------------------------------------------------------------------------
   0.15652E-10,        191

  MAXIMUM CHANGE FOR CLN NODE AT EACH ITERATION:
   MAX. CHANGE    CLN-CELL  MAX. CHANGE    CLN-CELL  MAX. CHANGE    CLN-CELL  MAX. CHANGE    CLN-CELL  MAX. CHANGE    CLN-CELL
 ------------------------------------------------------------------------------------------------------------------------------------
   0.15609E-08,          2
     TRANSPORT SOLUTION COMPLETE FOR COMPONENT SPECIES NUMBER    1
     ------------------------------------------------------------
 UBUDSVU SAVING "    MASS STORAGE" ON UNIT 145 AT TIME STEP     10, STRESS PERIOD     16
 UBUDSVU SAVING "CLN MASS STORAGE" ON UNIT 145 AT TIME STEP     10, STRESS PERIOD     16
 UBUDSVU SAVING "CNST H MASS FLUX" ON UNIT 145 AT TIME STEP     10, STRESS PERIOD     16
 UBUDSVU SAVING "  WELL MASS FLUX" ON UNIT 145 AT TIME STEP     10, STRESS PERIOD     16

 TRANSPORT SOLUTION COMPLETE FOR ALL SPECIES, SORTING OUTPUT FOR CONCENTRATIONS AND MASS BALANCE
 ----------------------------------------------------------------------------------------------------
     TRANSPORT OUTPUT FOR COMPONENT SPECIES NUMBER    1
     ------------------------------------------------------------

 CONC WILL BE SAVED ON UNIT  132 AT END OF TIME STEP       10, STRESS PERIOD       16

 CLN CONC WILL BE SAVED ON UNIT  188 AT END OF TIME STEP  10, STRESS PERIOD   16
1
  VOLUMETRIC BUDGET FOR ENTIRE MODEL AT END OF TIME STEP      10 IN STRESS PERIOD      16
  ---------------------------------------------------------------------------------------

     CUMULATIVE VOLUMES      L**3       RATES FOR THIS TIME STEP      L**3/T
     ------------------                 ------------------------

           IN:                                      IN:
           ---                                      ---
        MASS STORAGE =         240.0000          MASS STORAGE =           0.5000
    CNST H MASS FLUX =           0.0000      CNST H MASS FLUX =           0.0000
      WELL MASS FLUX =           0.0000        WELL MASS FLUX =           0.0000

            TOTAL IN =         240.0000              TOTAL IN =           0.5000

          OUT:                                     OUT:
          ----                                     ----
        MASS STORAGE =           0.2827          MASS STORAGE =       1.7330E-10
    CNST H MASS FLUX =           0.0000      CNST H MASS FLUX =           0.0000
      WELL MASS FLUX =         239.7173        WELL MASS FLUX =           0.5000

           TOTAL OUT =         240.0000             TOTAL OUT =           0.5000

            IN - OUT =       4.5239E-10              IN - OUT =      -1.7330E-10

 PERCENT DISCREPANCY =           0.00     PERCENT DISCREPANCY =          -0.00






          TIME SUMMARY AT END OF TIME STEP        10 IN STRESS PERIOD        16
                    SECONDS     MINUTES      HOURS       DAYS        YEARS
                    -----------------------------------------------------------
   TIME STEP LENGTH 5.15209E+05  8586.8      143.11      5.9631     1.63260E-02
 STRESS PERIOD TIME 2.59200E+06  43200.      720.00      30.000     8.21355E-02
         TOTAL TIME 4.14720E+07 6.91200E+05  11520.      480.00      1.3142    
1
1
                            STRESS PERIOD NO.   17, LENGTH =   30.00000    
                            -----------------------------------------------

                              NUMBER OF TIME STEPS =        10

                               MULTIPLIER FOR DELT =     1.200

                            INITIAL TIME STEP SIZE =   1.155682    

 WEL -- WELL PACKAGE, VERSION 7, 5/2/2005 INPUT READ FROM UNIT   12

 WELL NO.  CLN-NODE       STRESS FACTOR         C01             
 ---------------------------------------------------------------
        1            3      -5.000           0.000           0.000    

      1 WELL 
 -------------------------------------------------------------------------------------
 
 SOLVING FOR HEAD 

 Outer-Iteration  Inner-Iteration  Backtracking  Number of        Incoming       Outgoing  Maximum HeadChange      Maximum Head Change
     Number           Count           Flag       Backtracks       Residual       Residual           Value              Location
        1                             0             0          0.355798E-01     0.355798E-01
        1                5                                                                       -0.509378E-01               400           GWF-node number
        1                5                                                                       -0.482230E-01                 2           CLN-node number
        2                             0             0          0.234965E-08     0.234965E-08
        2                1                                                                        0.251904E-07               190           GWF-node number
        2                1                                                                        0.713875E-07                 1           CLN-node number


     2 CALLS TO SPARSE MATRIX SOLVER PACKAGE  IN FLOW TIME STEP       1 STRESS PERIOD      17

 TOTAL OF       2OUTER ITERATIONS
  MAXIMUM CHANGE FOR EACH ITERATION:
   MAX. CHANGE        NODE  MAX. CHANGE        NODE  MAX. CHANGE        NODE  MAX. CHANGE        NODE  MAX. CHANGE        NODE
 ------------------------------------------------------------------------------------------------------------------------------------
  -0.50938E-01,        400  0.25190E-07,        190

  MAXIMUM CHANGE FOR CLN NODE AT EACH ITERATION:
   MAX. CHANGE    CLN-CELL  MAX. CHANGE    CLN-CELL  MAX. CHANGE    CLN-CELL  MAX. CHANGE    CLN-CELL  MAX. CHANGE    CLN-CELL
 ------------------------------------------------------------------------------------------------------------------------------------
  -0.48223E-01,          2  0.71387E-07,          1

 HEAD/DRAWDOWN PRINTOUT FLAG = 1     TOTAL BUDGET PRINTOUT FLAG = 1
 CELL-BY-CELL FLOW TERM FLAG = 1
 CONCENTRATION PRINTOUT FLAG = 1

 OUTPUT FLAGS FOR ALL LAYERS ARE THE SAME:
   HEAD    DRAWDOWN  HEAD  DRAWDOWN    CONC    CONC
 PRINTOUT  PRINTOUT  SAVE    SAVE    PRINTOUT  SAVE
 ---------------------------------------------------
     0         0       1       1       0       1
 UBUDSVU SAVING "         STORAGE" ON UNIT  50 AT TIME STEP      1, STRESS PERIOD     17
 UBUDSV SAVING "     CLN STORAGE" ON UNIT 144 AT TIME STEP      1, STRESS PERIOD      17
 UBUDSVU SAVING "   CONSTANT HEAD" ON UNIT  50 AT TIME STEP      1, STRESS PERIOD     17
 UBUDSVU SAVING "   FLOW JA FACE " ON UNIT  50 AT TIME STEP      1, STRESS PERIOD     17
 UBUDSVU SAVING "             CLN" ON UNIT  50 AT TIME STEP      1, STRESS PERIOD     17
 UBUDSVU SAVING "  CLN CONST HEAD" ON UNIT 144 AT TIME STEP      1, STRESS PERIOD     17
 UBUDSVU SAVING "   FLOW CLN FACE" ON UNIT 144 AT TIME STEP      1, STRESS PERIOD     17
 UBUDSVU SAVING "             GWF" ON UNIT 144 AT TIME STEP      1, STRESS PERIOD     17
 UBUDSVU SAVING "           WELLS" ON UNIT  50 AT TIME STEP      1, STRESS PERIOD     17
 UBUDSVU SAVING "           WELLS" ON UNIT 144 AT TIME STEP      1, STRESS PERIOD     17

 HEAD WILL BE SAVED ON UNIT       30 AT END OF TIME STEP        1, STRESS PERIOD       17

 DRAWDOWN WILL BE SAVED ON UNIT   31 AT END OF TIME STEP   1, STRESS PERIOD   17

 CLN HEAD WILL BE SAVED ON UNIT   77 AT END OF TIME STEP   1, STRESS PERIOD   17
1
  VOLUMETRIC BUDGET FOR ENTIRE MODEL AT END OF TIME STEP       1 IN STRESS PERIOD      17
  ---------------------------------------------------------------------------------------

     CUMULATIVE VOLUMES      L**3       RATES FOR THIS TIME STEP      L**3/T
     ------------------                 ------------------------

           IN:                                      IN:
           ---                                      ---
             STORAGE =        2405.5318               STORAGE =           4.9971
         CLN STORAGE =           0.2465           CLN STORAGE =       2.9495E-03
       CONSTANT HEAD =           0.0000         CONSTANT HEAD =           0.0000
      CLN CONST HEAD =           0.0000        CLN CONST HEAD =           0.0000
               WELLS =           0.0000                 WELLS =           0.0000

            TOTAL IN =        2405.7783              TOTAL IN =           5.0000

          OUT:                                     OUT:
          ----                                     ----
             STORAGE =           0.0000               STORAGE =           0.0000
         CLN STORAGE =           0.0000           CLN STORAGE =           0.0000
       CONSTANT HEAD =           0.0000         CONSTANT HEAD =           0.0000
      CLN CONST HEAD =           0.0000        CLN CONST HEAD =           0.0000
               WELLS =        2405.7783                 WELLS =           5.0000

           TOTAL OUT =        2405.7783             TOTAL OUT =           5.0000

            IN - OUT =       2.1136E-05              IN - OUT =       7.1820E-09

 PERCENT DISCREPANCY =           0.00     PERCENT DISCREPANCY =           0.00






          TIME SUMMARY AT END OF TIME STEP         1 IN STRESS PERIOD        17
                    SECONDS     MINUTES      HOURS       DAYS        YEARS
                    -----------------------------------------------------------
   TIME STEP LENGTH  99851.      1664.2      27.736      1.1557     3.16409E-03
 STRESS PERIOD TIME  99851.      1664.2      27.736      1.1557     3.16409E-03
         TOTAL TIME 4.15718E+07 6.92864E+05  11548.      481.16      1.3173    
1
 ------------------------------------------------------------------------------------------------------------
 
 SOLVING FOR TRANSPORT 

 ------------------------------------------------------------------------------------------------------------------------
     1 CALLS TO SPARSE MATRIX SOLVER PACKAGE IN TRANSPORT TIME STEP       1 STRESS PERIOD      17 SPECIES  1

 TOTAL OF       1OUTER ITERATIONS
  MAXIMUM CHANGE FOR EACH ITERATION:
   MAX. CHANGE        NODE  MAX. CHANGE        NODE  MAX. CHANGE        NODE  MAX. CHANGE        NODE  MAX. CHANGE        NODE
 ------------------------------------------------------------------------------------------------------------------------------------
   0.11068E-11,        190

  MAXIMUM CHANGE FOR CLN NODE AT EACH ITERATION:
   MAX. CHANGE    CLN-CELL  MAX. CHANGE    CLN-CELL  MAX. CHANGE    CLN-CELL  MAX. CHANGE    CLN-CELL  MAX. CHANGE    CLN-CELL
 ------------------------------------------------------------------------------------------------------------------------------------
  -0.12994E-08,          2
     TRANSPORT SOLUTION COMPLETE FOR COMPONENT SPECIES NUMBER    1
     ------------------------------------------------------------
 UBUDSVU SAVING "    MASS STORAGE" ON UNIT 145 AT TIME STEP      1, STRESS PERIOD     17
 UBUDSVU SAVING "CLN MASS STORAGE" ON UNIT 145 AT TIME STEP      1, STRESS PERIOD     17
 UBUDSVU SAVING "CNST H MASS FLUX" ON UNIT 145 AT TIME STEP      1, STRESS PERIOD     17
 UBUDSVU SAVING "  WELL MASS FLUX" ON UNIT 145 AT TIME STEP      1, STRESS PERIOD     17

 TRANSPORT SOLUTION COMPLETE FOR ALL SPECIES, SORTING OUTPUT FOR CONCENTRATIONS AND MASS BALANCE
 ----------------------------------------------------------------------------------------------------
     TRANSPORT OUTPUT FOR COMPONENT SPECIES NUMBER    1
     ------------------------------------------------------------

 CONC WILL BE SAVED ON UNIT  132 AT END OF TIME STEP        1, STRESS PERIOD       17

 CLN CONC WILL BE SAVED ON UNIT  188 AT END OF TIME STEP   1, STRESS PERIOD   17
1
  VOLUMETRIC BUDGET FOR ENTIRE MODEL AT END OF TIME STEP       1 IN STRESS PERIOD      17
  ---------------------------------------------------------------------------------------

     CUMULATIVE VOLUMES      L**3       RATES FOR THIS TIME STEP      L**3/T
     ------------------                 ------------------------

           IN:                                      IN:
           ---                                      ---
        MASS STORAGE =         240.5778          MASS STORAGE =           0.5000
    CNST H MASS FLUX =           0.0000      CNST H MASS FLUX =           0.0000
      WELL MASS FLUX =           0.0000        WELL MASS FLUX =           0.0000

            TOTAL IN =         240.5778              TOTAL IN =           0.5000

          OUT:                                     OUT:
          ----                                     ----
        MASS STORAGE =           0.2827          MASS STORAGE =           0.0000
    CNST H MASS FLUX =           0.0000      CNST H MASS FLUX =           0.0000
      WELL MASS FLUX =         240.2951        WELL MASS FLUX =           0.5000

           TOTAL OUT =         240.5778             TOTAL OUT =           0.5000

            IN - OUT =       4.5225E-10              IN - OUT =           0.0000

 PERCENT DISCREPANCY =           0.00     PERCENT DISCREPANCY =           0.00






          TIME SUMMARY AT END OF TIME STEP         1 IN STRESS PERIOD        17
                    SECONDS     MINUTES      HOURS       DAYS        YEARS
                    -----------------------------------------------------------
   TIME STEP LENGTH  99851.      1664.2      27.736      1.1557     3.16409E-03
 STRESS PERIOD TIME  99851.      1664.2      27.736      1.1557     3.16409E-03
         TOTAL TIME 4.15718E+07 6.92864E+05  11548.      481.16      1.3173    
1
 -------------------------------------------------------------------------------------
 
 SOLVING FOR HEAD 

 Outer-Iteration  Inner-Iteration  Backtracking  Number of        Incoming       Outgoing  Maximum HeadChange      Maximum Head Change
     Number           Count           Flag       Backtracks       Residual       Residual           Value              Location
        1                             0             0          0.355620E-01     0.355620E-01
        1                5                                                                       -0.610909E-01               400           GWF-node number
        1                5                                                                       -0.578393E-01                 3           CLN-node number
        2                             0             0          0.492713E-08     0.492713E-08
        2                1                                                                       -0.866200E-07               190           GWF-node number
        2                1                                                                       -0.231705E-06                 3           CLN-node number
     2 CALLS TO SPARSE MATRIX SOLVER PACKAGE  IN FLOW TIME STEP       2 STRESS PERIOD      17

 TOTAL OF       2OUTER ITERATIONS
  MAXIMUM CHANGE FOR EACH ITERATION:
   MAX. CHANGE        NODE  MAX. CHANGE        NODE  MAX. CHANGE        NODE  MAX. CHANGE        NODE  MAX. CHANGE        NODE
 ------------------------------------------------------------------------------------------------------------------------------------
  -0.61091E-01,        400 -0.86620E-07,        190

  MAXIMUM CHANGE FOR CLN NODE AT EACH ITERATION:
   MAX. CHANGE    CLN-CELL  MAX. CHANGE    CLN-CELL  MAX. CHANGE    CLN-CELL  MAX. CHANGE    CLN-CELL  MAX. CHANGE    CLN-CELL
 ------------------------------------------------------------------------------------------------------------------------------------
  -0.57839E-01,          3 -0.23170E-06,          3

 HEAD/DRAWDOWN PRINTOUT FLAG = 1     TOTAL BUDGET PRINTOUT FLAG = 1
 CELL-BY-CELL FLOW TERM FLAG = 1
 CONCENTRATION PRINTOUT FLAG = 1

 OUTPUT FLAGS FOR ALL LAYERS ARE THE SAME:
   HEAD    DRAWDOWN  HEAD  DRAWDOWN    CONC    CONC
 PRINTOUT  PRINTOUT  SAVE    SAVE    PRINTOUT  SAVE
 ---------------------------------------------------
     0         0       1       1       0       1
 UBUDSVU SAVING "         STORAGE" ON UNIT  50 AT TIME STEP      2, STRESS PERIOD     17
 UBUDSV SAVING "     CLN STORAGE" ON UNIT 144 AT TIME STEP      2, STRESS PERIOD      17
 UBUDSVU SAVING "   CONSTANT HEAD" ON UNIT  50 AT TIME STEP      2, STRESS PERIOD     17
 UBUDSVU SAVING "   FLOW JA FACE " ON UNIT  50 AT TIME STEP      2, STRESS PERIOD     17
 UBUDSVU SAVING "             CLN" ON UNIT  50 AT TIME STEP      2, STRESS PERIOD     17
 UBUDSVU SAVING "  CLN CONST HEAD" ON UNIT 144 AT TIME STEP      2, STRESS PERIOD     17
 UBUDSVU SAVING "   FLOW CLN FACE" ON UNIT 144 AT TIME STEP      2, STRESS PERIOD     17
 UBUDSVU SAVING "             GWF" ON UNIT 144 AT TIME STEP      2, STRESS PERIOD     17
 UBUDSVU SAVING "           WELLS" ON UNIT  50 AT TIME STEP      2, STRESS PERIOD     17
 UBUDSVU SAVING "           WELLS" ON UNIT 144 AT TIME STEP      2, STRESS PERIOD     17

 HEAD WILL BE SAVED ON UNIT       30 AT END OF TIME STEP        2, STRESS PERIOD       17

 DRAWDOWN WILL BE SAVED ON UNIT   31 AT END OF TIME STEP   2, STRESS PERIOD   17

 CLN HEAD WILL BE SAVED ON UNIT   77 AT END OF TIME STEP   2, STRESS PERIOD   17
1
  VOLUMETRIC BUDGET FOR ENTIRE MODEL AT END OF TIME STEP       2 IN STRESS PERIOD      17
  ---------------------------------------------------------------------------------------

     CUMULATIVE VOLUMES      L**3       RATES FOR THIS TIME STEP      L**3/T
     ------------------                 ------------------------

           IN:                                      IN:
           ---                                      ---
             STORAGE =        2412.4618               STORAGE =           4.9971
         CLN STORAGE =           0.2506           CLN STORAGE =       2.9481E-03
       CONSTANT HEAD =           0.0000         CONSTANT HEAD =           0.0000
      CLN CONST HEAD =           0.0000        CLN CONST HEAD =           0.0000
               WELLS =           0.0000                 WELLS =           0.0000

            TOTAL IN =        2412.7124              TOTAL IN =           5.0000

          OUT:                                     OUT:
          ----                                     ----
             STORAGE =           0.0000               STORAGE =           0.0000
         CLN STORAGE =           0.0000           CLN STORAGE =           0.0000
       CONSTANT HEAD =           0.0000         CONSTANT HEAD =           0.0000
      CLN CONST HEAD =           0.0000        CLN CONST HEAD =           0.0000
               WELLS =        2412.7124                 WELLS =           5.0000

           TOTAL OUT =        2412.7124             TOTAL OUT =           5.0000

            IN - OUT =       2.1194E-05              IN - OUT =       4.1711E-08

 PERCENT DISCREPANCY =           0.00     PERCENT DISCREPANCY =           0.00






          TIME SUMMARY AT END OF TIME STEP         2 IN STRESS PERIOD        17
                    SECONDS     MINUTES      HOURS       DAYS        YEARS
                    -----------------------------------------------------------
   TIME STEP LENGTH 1.19821E+05  1997.0      33.284      1.3868     3.79690E-03
 STRESS PERIOD TIME 2.19672E+05  3661.2      61.020      2.5425     6.96099E-03
         TOTAL TIME 4.16917E+07 6.94861E+05  11581.      482.54      1.3211    
1
 ------------------------------------------------------------------------------------------------------------
 
 SOLVING FOR TRANSPORT 

 ------------------------------------------------------------------------------------------------------------------------
     1 CALLS TO SPARSE MATRIX SOLVER PACKAGE IN TRANSPORT TIME STEP       2 STRESS PERIOD      17 SPECIES  1

 TOTAL OF       1OUTER ITERATIONS
  MAXIMUM CHANGE FOR EACH ITERATION:
   MAX. CHANGE        NODE  MAX. CHANGE        NODE  MAX. CHANGE        NODE  MAX. CHANGE        NODE  MAX. CHANGE        NODE
 ------------------------------------------------------------------------------------------------------------------------------------
  -0.16077E-10,        191

  MAXIMUM CHANGE FOR CLN NODE AT EACH ITERATION:
   MAX. CHANGE    CLN-CELL  MAX. CHANGE    CLN-CELL  MAX. CHANGE    CLN-CELL  MAX. CHANGE    CLN-CELL  MAX. CHANGE    CLN-CELL
 ------------------------------------------------------------------------------------------------------------------------------------
   0.14805E-08,          3
     TRANSPORT SOLUTION COMPLETE FOR COMPONENT SPECIES NUMBER    1
     ------------------------------------------------------------
 UBUDSVU SAVING "    MASS STORAGE" ON UNIT 145 AT TIME STEP      2, STRESS PERIOD     17
 UBUDSVU SAVING "CLN MASS STORAGE" ON UNIT 145 AT TIME STEP      2, STRESS PERIOD     17
 UBUDSVU SAVING "CNST H MASS FLUX" ON UNIT 145 AT TIME STEP      2, STRESS PERIOD     17
 UBUDSVU SAVING "  WELL MASS FLUX" ON UNIT 145 AT TIME STEP      2, STRESS PERIOD     17

 TRANSPORT SOLUTION COMPLETE FOR ALL SPECIES, SORTING OUTPUT FOR CONCENTRATIONS AND MASS BALANCE
 ----------------------------------------------------------------------------------------------------
     TRANSPORT OUTPUT FOR COMPONENT SPECIES NUMBER    1
     ------------------------------------------------------------

 CONC WILL BE SAVED ON UNIT  132 AT END OF TIME STEP        2, STRESS PERIOD       17

 CLN CONC WILL BE SAVED ON UNIT  188 AT END OF TIME STEP   2, STRESS PERIOD   17
1
  VOLUMETRIC BUDGET FOR ENTIRE MODEL AT END OF TIME STEP       2 IN STRESS PERIOD      17
  ---------------------------------------------------------------------------------------

     CUMULATIVE VOLUMES      L**3       RATES FOR THIS TIME STEP      L**3/T
     ------------------                 ------------------------

           IN:                                      IN:
           ---                                      ---
        MASS STORAGE =         241.2713          MASS STORAGE =           0.5000
    CNST H MASS FLUX =           0.0000      CNST H MASS FLUX =           0.0000
      WELL MASS FLUX =           0.0000        WELL MASS FLUX =           0.0000

            TOTAL IN =         241.2713              TOTAL IN =           0.5000

          OUT:                                     OUT:
          ----                                     ----
        MASS STORAGE =           0.2827          MASS STORAGE =       1.5004E-09
    CNST H MASS FLUX =           0.0000      CNST H MASS FLUX =           0.0000
      WELL MASS FLUX =         240.9885        WELL MASS FLUX =           0.5000

           TOTAL OUT =         241.2713             TOTAL OUT =           0.5000

            IN - OUT =       4.5091E-10              IN - OUT =      -1.5004E-09

 PERCENT DISCREPANCY =           0.00     PERCENT DISCREPANCY =          -0.00






          TIME SUMMARY AT END OF TIME STEP         2 IN STRESS PERIOD        17
                    SECONDS     MINUTES      HOURS       DAYS        YEARS
                    -----------------------------------------------------------
   TIME STEP LENGTH 1.19821E+05  1997.0      33.284      1.3868     3.79690E-03
 STRESS PERIOD TIME 2.19672E+05  3661.2      61.020      2.5425     6.96099E-03
         TOTAL TIME 4.16917E+07 6.94861E+05  11581.      482.54      1.3211    
1
 -------------------------------------------------------------------------------------
 
 SOLVING FOR HEAD 

 Outer-Iteration  Inner-Iteration  Backtracking  Number of        Incoming       Outgoing  Maximum HeadChange      Maximum Head Change
     Number           Count           Flag       Backtracks       Residual       Residual           Value              Location
        1                             0             0          0.355407E-01     0.355407E-01
        1                5                                                                       -0.732597E-01               400           GWF-node number
        1                5                                                                       -0.693663E-01                 2           CLN-node number
        2                             0             0          0.102878E-07     0.102878E-07
        2                1                                                                        0.246529E-07               190           GWF-node number
        2                1                                                                        0.802517E-07                 1           CLN-node number
     2 CALLS TO SPARSE MATRIX SOLVER PACKAGE  IN FLOW TIME STEP       3 STRESS PERIOD      17

 TOTAL OF       2OUTER ITERATIONS
  MAXIMUM CHANGE FOR EACH ITERATION:
   MAX. CHANGE        NODE  MAX. CHANGE        NODE  MAX. CHANGE        NODE  MAX. CHANGE        NODE  MAX. CHANGE        NODE
 ------------------------------------------------------------------------------------------------------------------------------------
  -0.73260E-01,        400  0.24653E-07,        190

  MAXIMUM CHANGE FOR CLN NODE AT EACH ITERATION:
   MAX. CHANGE    CLN-CELL  MAX. CHANGE    CLN-CELL  MAX. CHANGE    CLN-CELL  MAX. CHANGE    CLN-CELL  MAX. CHANGE    CLN-CELL
 ------------------------------------------------------------------------------------------------------------------------------------
  -0.69366E-01,          2  0.80252E-07,          1

 HEAD/DRAWDOWN PRINTOUT FLAG = 1     TOTAL BUDGET PRINTOUT FLAG = 1
 CELL-BY-CELL FLOW TERM FLAG = 1
 CONCENTRATION PRINTOUT FLAG = 1

 OUTPUT FLAGS FOR ALL LAYERS ARE THE SAME:
   HEAD    DRAWDOWN  HEAD  DRAWDOWN    CONC    CONC
 PRINTOUT  PRINTOUT  SAVE    SAVE    PRINTOUT  SAVE
 ---------------------------------------------------
     0         0       1       1       0       1
 UBUDSVU SAVING "         STORAGE" ON UNIT  50 AT TIME STEP      3, STRESS PERIOD     17
 UBUDSV SAVING "     CLN STORAGE" ON UNIT 144 AT TIME STEP      3, STRESS PERIOD      17
 UBUDSVU SAVING "   CONSTANT HEAD" ON UNIT  50 AT TIME STEP      3, STRESS PERIOD     17
 UBUDSVU SAVING "   FLOW JA FACE " ON UNIT  50 AT TIME STEP      3, STRESS PERIOD     17
 UBUDSVU SAVING "             CLN" ON UNIT  50 AT TIME STEP      3, STRESS PERIOD     17
 UBUDSVU SAVING "  CLN CONST HEAD" ON UNIT 144 AT TIME STEP      3, STRESS PERIOD     17
 UBUDSVU SAVING "   FLOW CLN FACE" ON UNIT 144 AT TIME STEP      3, STRESS PERIOD     17
 UBUDSVU SAVING "             GWF" ON UNIT 144 AT TIME STEP      3, STRESS PERIOD     17
 UBUDSVU SAVING "           WELLS" ON UNIT  50 AT TIME STEP      3, STRESS PERIOD     17
 UBUDSVU SAVING "           WELLS" ON UNIT 144 AT TIME STEP      3, STRESS PERIOD     17

 HEAD WILL BE SAVED ON UNIT       30 AT END OF TIME STEP        3, STRESS PERIOD       17

 DRAWDOWN WILL BE SAVED ON UNIT   31 AT END OF TIME STEP   3, STRESS PERIOD   17

 CLN HEAD WILL BE SAVED ON UNIT   77 AT END OF TIME STEP   3, STRESS PERIOD   17
1
  VOLUMETRIC BUDGET FOR ENTIRE MODEL AT END OF TIME STEP       3 IN STRESS PERIOD      17
  ---------------------------------------------------------------------------------------

     CUMULATIVE VOLUMES      L**3       RATES FOR THIS TIME STEP      L**3/T
     ------------------                 ------------------------

           IN:                                      IN:
           ---                                      ---
             STORAGE =        2420.7779               STORAGE =           4.9971
         CLN STORAGE =           0.2555           CLN STORAGE =       2.9463E-03
       CONSTANT HEAD =           0.0000         CONSTANT HEAD =           0.0000
      CLN CONST HEAD =           0.0000        CLN CONST HEAD =           0.0000
               WELLS =           0.0000                 WELLS =           0.0000

            TOTAL IN =        2421.0333              TOTAL IN =           5.0000

          OUT:                                     OUT:
          ----                                     ----
             STORAGE =           0.0000               STORAGE =           0.0000
         CLN STORAGE =           0.0000           CLN STORAGE =           0.0000
       CONSTANT HEAD =           0.0000         CONSTANT HEAD =           0.0000
      CLN CONST HEAD =           0.0000        CLN CONST HEAD =           0.0000
               WELLS =        2421.0333                 WELLS =           5.0000

           TOTAL OUT =        2421.0333             TOTAL OUT =           5.0000

            IN - OUT =       2.1123E-05              IN - OUT =      -4.2614E-08

 PERCENT DISCREPANCY =           0.00     PERCENT DISCREPANCY =          -0.00






          TIME SUMMARY AT END OF TIME STEP         3 IN STRESS PERIOD        17
                    SECONDS     MINUTES      HOURS       DAYS        YEARS
                    -----------------------------------------------------------
   TIME STEP LENGTH 1.43785E+05  2396.4      39.940      1.6642     4.55628E-03
 STRESS PERIOD TIME 3.63458E+05  6057.6      100.96      4.2067     1.15173E-02
         TOTAL TIME 4.18355E+07 6.97258E+05  11621.      484.21      1.3257    
1
 ------------------------------------------------------------------------------------------------------------
 
 SOLVING FOR TRANSPORT 

 ------------------------------------------------------------------------------------------------------------------------
     1 CALLS TO SPARSE MATRIX SOLVER PACKAGE IN TRANSPORT TIME STEP       3 STRESS PERIOD      17 SPECIES  1

 TOTAL OF       1OUTER ITERATIONS
  MAXIMUM CHANGE FOR EACH ITERATION:
   MAX. CHANGE        NODE  MAX. CHANGE        NODE  MAX. CHANGE        NODE  MAX. CHANGE        NODE  MAX. CHANGE        NODE
 ------------------------------------------------------------------------------------------------------------------------------------
   0.12520E-11,        190

  MAXIMUM CHANGE FOR CLN NODE AT EACH ITERATION:
   MAX. CHANGE    CLN-CELL  MAX. CHANGE    CLN-CELL  MAX. CHANGE    CLN-CELL  MAX. CHANGE    CLN-CELL  MAX. CHANGE    CLN-CELL
 ------------------------------------------------------------------------------------------------------------------------------------
  -0.29144E-08,          2
     TRANSPORT SOLUTION COMPLETE FOR COMPONENT SPECIES NUMBER    1
     ------------------------------------------------------------
 UBUDSVU SAVING "    MASS STORAGE" ON UNIT 145 AT TIME STEP      3, STRESS PERIOD     17
 UBUDSVU SAVING "CLN MASS STORAGE" ON UNIT 145 AT TIME STEP      3, STRESS PERIOD     17
 UBUDSVU SAVING "CNST H MASS FLUX" ON UNIT 145 AT TIME STEP      3, STRESS PERIOD     17
 UBUDSVU SAVING "  WELL MASS FLUX" ON UNIT 145 AT TIME STEP      3, STRESS PERIOD     17

 TRANSPORT SOLUTION COMPLETE FOR ALL SPECIES, SORTING OUTPUT FOR CONCENTRATIONS AND MASS BALANCE
 ----------------------------------------------------------------------------------------------------
     TRANSPORT OUTPUT FOR COMPONENT SPECIES NUMBER    1
     ------------------------------------------------------------

 CONC WILL BE SAVED ON UNIT  132 AT END OF TIME STEP        3, STRESS PERIOD       17

 CLN CONC WILL BE SAVED ON UNIT  188 AT END OF TIME STEP   3, STRESS PERIOD   17
1
  VOLUMETRIC BUDGET FOR ENTIRE MODEL AT END OF TIME STEP       3 IN STRESS PERIOD      17
  ---------------------------------------------------------------------------------------

     CUMULATIVE VOLUMES      L**3       RATES FOR THIS TIME STEP      L**3/T
     ------------------                 ------------------------

           IN:                                      IN:
           ---                                      ---
        MASS STORAGE =         242.1033          MASS STORAGE =           0.5000
    CNST H MASS FLUX =           0.0000      CNST H MASS FLUX =           0.0000
      WELL MASS FLUX =           0.0000        WELL MASS FLUX =           0.0000

            TOTAL IN =         242.1033              TOTAL IN =           0.5000

          OUT:                                     OUT:
          ----                                     ----
        MASS STORAGE =           0.2827          MASS STORAGE =           0.0000
    CNST H MASS FLUX =           0.0000      CNST H MASS FLUX =           0.0000
      WELL MASS FLUX =         241.8206        WELL MASS FLUX =           0.5000

           TOTAL OUT =         242.1033             TOTAL OUT =           0.5000

            IN - OUT =       4.5080E-10              IN - OUT =           0.0000

 PERCENT DISCREPANCY =           0.00     PERCENT DISCREPANCY =           0.00






          TIME SUMMARY AT END OF TIME STEP         3 IN STRESS PERIOD        17
                    SECONDS     MINUTES      HOURS       DAYS        YEARS
                    -----------------------------------------------------------
   TIME STEP LENGTH 1.43785E+05  2396.4      39.940      1.6642     4.55628E-03
 STRESS PERIOD TIME 3.63458E+05  6057.6      100.96      4.2067     1.15173E-02
         TOTAL TIME 4.18355E+07 6.97258E+05  11621.      484.21      1.3257    
1
 -------------------------------------------------------------------------------------
 
 SOLVING FOR HEAD 

 Outer-Iteration  Inner-Iteration  Backtracking  Number of        Incoming       Outgoing  Maximum HeadChange      Maximum Head Change
     Number           Count           Flag       Backtracks       Residual       Residual           Value              Location
        1                             0             0          0.355152E-01     0.355152E-01
        1                5                                                                       -0.878406E-01               400           GWF-node number
        1                5                                                                       -0.831820E-01                 3           CLN-node number
        2                             0             0          0.216989E-07     0.216989E-07
        2                1                                                                       -0.511491E-07               190           GWF-node number
        2                1                                                                       -0.857587E-07                 3           CLN-node number
     2 CALLS TO SPARSE MATRIX SOLVER PACKAGE  IN FLOW TIME STEP       4 STRESS PERIOD      17

 TOTAL OF       2OUTER ITERATIONS
  MAXIMUM CHANGE FOR EACH ITERATION:
   MAX. CHANGE        NODE  MAX. CHANGE        NODE  MAX. CHANGE        NODE  MAX. CHANGE        NODE  MAX. CHANGE        NODE
 ------------------------------------------------------------------------------------------------------------------------------------
  -0.87841E-01,        400 -0.51149E-07,        190

  MAXIMUM CHANGE FOR CLN NODE AT EACH ITERATION:
   MAX. CHANGE    CLN-CELL  MAX. CHANGE    CLN-CELL  MAX. CHANGE    CLN-CELL  MAX. CHANGE    CLN-CELL  MAX. CHANGE    CLN-CELL
 ------------------------------------------------------------------------------------------------------------------------------------
  -0.83182E-01,          3 -0.85759E-07,          3

 HEAD/DRAWDOWN PRINTOUT FLAG = 1     TOTAL BUDGET PRINTOUT FLAG = 1
 CELL-BY-CELL FLOW TERM FLAG = 1
 CONCENTRATION PRINTOUT FLAG = 1

 OUTPUT FLAGS FOR ALL LAYERS ARE THE SAME:
   HEAD    DRAWDOWN  HEAD  DRAWDOWN    CONC    CONC
 PRINTOUT  PRINTOUT  SAVE    SAVE    PRINTOUT  SAVE
 ---------------------------------------------------
     0         0       1       1       0       1
 UBUDSVU SAVING "         STORAGE" ON UNIT  50 AT TIME STEP      4, STRESS PERIOD     17
 UBUDSV SAVING "     CLN STORAGE" ON UNIT 144 AT TIME STEP      4, STRESS PERIOD      17
 UBUDSVU SAVING "   CONSTANT HEAD" ON UNIT  50 AT TIME STEP      4, STRESS PERIOD     17
 UBUDSVU SAVING "   FLOW JA FACE " ON UNIT  50 AT TIME STEP      4, STRESS PERIOD     17
 UBUDSVU SAVING "             CLN" ON UNIT  50 AT TIME STEP      4, STRESS PERIOD     17
 UBUDSVU SAVING "  CLN CONST HEAD" ON UNIT 144 AT TIME STEP      4, STRESS PERIOD     17
 UBUDSVU SAVING "   FLOW CLN FACE" ON UNIT 144 AT TIME STEP      4, STRESS PERIOD     17
 UBUDSVU SAVING "             GWF" ON UNIT 144 AT TIME STEP      4, STRESS PERIOD     17
 UBUDSVU SAVING "           WELLS" ON UNIT  50 AT TIME STEP      4, STRESS PERIOD     17
 UBUDSVU SAVING "           WELLS" ON UNIT 144 AT TIME STEP      4, STRESS PERIOD     17

 HEAD WILL BE SAVED ON UNIT       30 AT END OF TIME STEP        4, STRESS PERIOD       17

 DRAWDOWN WILL BE SAVED ON UNIT   31 AT END OF TIME STEP   4, STRESS PERIOD   17

 CLN HEAD WILL BE SAVED ON UNIT   77 AT END OF TIME STEP   4, STRESS PERIOD   17
1
  VOLUMETRIC BUDGET FOR ENTIRE MODEL AT END OF TIME STEP       4 IN STRESS PERIOD      17
  ---------------------------------------------------------------------------------------

     CUMULATIVE VOLUMES      L**3       RATES FOR THIS TIME STEP      L**3/T
     ------------------                 ------------------------

           IN:                                      IN:
           ---                                      ---
             STORAGE =        2430.7571               STORAGE =           4.9971
         CLN STORAGE =           0.2614           CLN STORAGE =       2.9443E-03
       CONSTANT HEAD =           0.0000         CONSTANT HEAD =           0.0000
      CLN CONST HEAD =           0.0000        CLN CONST HEAD =           0.0000
               WELLS =           0.0000                 WELLS =           0.0000

            TOTAL IN =        2431.0184              TOTAL IN =           5.0000

          OUT:                                     OUT:
          ----                                     ----
             STORAGE =           0.0000               STORAGE =           0.0000
         CLN STORAGE =           0.0000           CLN STORAGE =           0.0000
       CONSTANT HEAD =           0.0000         CONSTANT HEAD =           0.0000
      CLN CONST HEAD =           0.0000        CLN CONST HEAD =           0.0000
               WELLS =        2431.0184                 WELLS =           5.0000

           TOTAL OUT =        2431.0184             TOTAL OUT =           5.0000

            IN - OUT =       2.1208E-05              IN - OUT =       4.2221E-08

 PERCENT DISCREPANCY =           0.00     PERCENT DISCREPANCY =           0.00






          TIME SUMMARY AT END OF TIME STEP         4 IN STRESS PERIOD        17
                    SECONDS     MINUTES      HOURS       DAYS        YEARS
                    -----------------------------------------------------------
   TIME STEP LENGTH 1.72542E+05  2875.7      47.928      1.9970     5.46754E-03
 STRESS PERIOD TIME 5.36000E+05  8933.3      148.89      6.2037     1.69848E-02
         TOTAL TIME 4.20080E+07 7.00133E+05  11669.      486.20      1.3312    
1
 ------------------------------------------------------------------------------------------------------------
 
 SOLVING FOR TRANSPORT 

 ------------------------------------------------------------------------------------------------------------------------
     1 CALLS TO SPARSE MATRIX SOLVER PACKAGE IN TRANSPORT TIME STEP       4 STRESS PERIOD      17 SPECIES  1

 TOTAL OF       1OUTER ITERATIONS
  MAXIMUM CHANGE FOR EACH ITERATION:
   MAX. CHANGE        NODE  MAX. CHANGE        NODE  MAX. CHANGE        NODE  MAX. CHANGE        NODE  MAX. CHANGE        NODE
 ------------------------------------------------------------------------------------------------------------------------------------
  -0.12529E-10,        191

  MAXIMUM CHANGE FOR CLN NODE AT EACH ITERATION:
   MAX. CHANGE    CLN-CELL  MAX. CHANGE    CLN-CELL  MAX. CHANGE    CLN-CELL  MAX. CHANGE    CLN-CELL  MAX. CHANGE    CLN-CELL
 ------------------------------------------------------------------------------------------------------------------------------------
   0.25909E-08,          2
     TRANSPORT SOLUTION COMPLETE FOR COMPONENT SPECIES NUMBER    1
     ------------------------------------------------------------
 UBUDSVU SAVING "    MASS STORAGE" ON UNIT 145 AT TIME STEP      4, STRESS PERIOD     17
 UBUDSVU SAVING "CLN MASS STORAGE" ON UNIT 145 AT TIME STEP      4, STRESS PERIOD     17
 UBUDSVU SAVING "CNST H MASS FLUX" ON UNIT 145 AT TIME STEP      4, STRESS PERIOD     17
 UBUDSVU SAVING "  WELL MASS FLUX" ON UNIT 145 AT TIME STEP      4, STRESS PERIOD     17

 TRANSPORT SOLUTION COMPLETE FOR ALL SPECIES, SORTING OUTPUT FOR CONCENTRATIONS AND MASS BALANCE
 ----------------------------------------------------------------------------------------------------
     TRANSPORT OUTPUT FOR COMPONENT SPECIES NUMBER    1
     ------------------------------------------------------------

 CONC WILL BE SAVED ON UNIT  132 AT END OF TIME STEP        4, STRESS PERIOD       17

 CLN CONC WILL BE SAVED ON UNIT  188 AT END OF TIME STEP   4, STRESS PERIOD   17
1
  VOLUMETRIC BUDGET FOR ENTIRE MODEL AT END OF TIME STEP       4 IN STRESS PERIOD      17
  ---------------------------------------------------------------------------------------

     CUMULATIVE VOLUMES      L**3       RATES FOR THIS TIME STEP      L**3/T
     ------------------                 ------------------------

           IN:                                      IN:
           ---                                      ---
        MASS STORAGE =         243.1019          MASS STORAGE =           0.5000
    CNST H MASS FLUX =           0.0000      CNST H MASS FLUX =           0.0000
      WELL MASS FLUX =           0.0000        WELL MASS FLUX =           0.0000

            TOTAL IN =         243.1019              TOTAL IN =           0.5000

          OUT:                                     OUT:
          ----                                     ----
        MASS STORAGE =           0.2827          MASS STORAGE =       1.2505E-09
    CNST H MASS FLUX =           0.0000      CNST H MASS FLUX =           0.0000
      WELL MASS FLUX =         242.8191        WELL MASS FLUX =           0.5000

           TOTAL OUT =         243.1019             TOTAL OUT =           0.5000

            IN - OUT =       4.4867E-10              IN - OUT =      -1.2505E-09

 PERCENT DISCREPANCY =           0.00     PERCENT DISCREPANCY =          -0.00






          TIME SUMMARY AT END OF TIME STEP         4 IN STRESS PERIOD        17
                    SECONDS     MINUTES      HOURS       DAYS        YEARS
                    -----------------------------------------------------------
   TIME STEP LENGTH 1.72542E+05  2875.7      47.928      1.9970     5.46754E-03
 STRESS PERIOD TIME 5.36000E+05  8933.3      148.89      6.2037     1.69848E-02
         TOTAL TIME 4.20080E+07 7.00133E+05  11669.      486.20      1.3312    
1
 -------------------------------------------------------------------------------------
 
 SOLVING FOR HEAD 

 Outer-Iteration  Inner-Iteration  Backtracking  Number of        Incoming       Outgoing  Maximum HeadChange      Maximum Head Change
     Number           Count           Flag       Backtracks       Residual       Residual           Value              Location
        1                             0             0          0.354849E-01     0.354849E-01
        1                6                                                                       -0.105307                   400           GWF-node number
        1                6                                                                       -0.997346E-01                 3           CLN-node number
        2                             0             0          0.457799E-07     0.457799E-07
        2                1                                                                        0.783730E-07               190           GWF-node number
        2                1                                                                        0.202753E-06                 1           CLN-node number
     2 CALLS TO SPARSE MATRIX SOLVER PACKAGE  IN FLOW TIME STEP       5 STRESS PERIOD      17

 TOTAL OF       2OUTER ITERATIONS
  MAXIMUM CHANGE FOR EACH ITERATION:
   MAX. CHANGE        NODE  MAX. CHANGE        NODE  MAX. CHANGE        NODE  MAX. CHANGE        NODE  MAX. CHANGE        NODE
 ------------------------------------------------------------------------------------------------------------------------------------
  -0.10531    ,        400  0.78373E-07,        190

  MAXIMUM CHANGE FOR CLN NODE AT EACH ITERATION:
   MAX. CHANGE    CLN-CELL  MAX. CHANGE    CLN-CELL  MAX. CHANGE    CLN-CELL  MAX. CHANGE    CLN-CELL  MAX. CHANGE    CLN-CELL
 ------------------------------------------------------------------------------------------------------------------------------------
  -0.99735E-01,          3  0.20275E-06,          1

 HEAD/DRAWDOWN PRINTOUT FLAG = 1     TOTAL BUDGET PRINTOUT FLAG = 1
 CELL-BY-CELL FLOW TERM FLAG = 1
 CONCENTRATION PRINTOUT FLAG = 1

 OUTPUT FLAGS FOR ALL LAYERS ARE THE SAME:
   HEAD    DRAWDOWN  HEAD  DRAWDOWN    CONC    CONC
 PRINTOUT  PRINTOUT  SAVE    SAVE    PRINTOUT  SAVE
 ---------------------------------------------------
     0         0       1       1       0       1
 UBUDSVU SAVING "         STORAGE" ON UNIT  50 AT TIME STEP      5, STRESS PERIOD     17
 UBUDSV SAVING "     CLN STORAGE" ON UNIT 144 AT TIME STEP      5, STRESS PERIOD      17
 UBUDSVU SAVING "   CONSTANT HEAD" ON UNIT  50 AT TIME STEP      5, STRESS PERIOD     17
 UBUDSVU SAVING "   FLOW JA FACE " ON UNIT  50 AT TIME STEP      5, STRESS PERIOD     17
 UBUDSVU SAVING "             CLN" ON UNIT  50 AT TIME STEP      5, STRESS PERIOD     17
 UBUDSVU SAVING "  CLN CONST HEAD" ON UNIT 144 AT TIME STEP      5, STRESS PERIOD     17
 UBUDSVU SAVING "   FLOW CLN FACE" ON UNIT 144 AT TIME STEP      5, STRESS PERIOD     17
 UBUDSVU SAVING "             GWF" ON UNIT 144 AT TIME STEP      5, STRESS PERIOD     17
 UBUDSVU SAVING "           WELLS" ON UNIT  50 AT TIME STEP      5, STRESS PERIOD     17
 UBUDSVU SAVING "           WELLS" ON UNIT 144 AT TIME STEP      5, STRESS PERIOD     17

 HEAD WILL BE SAVED ON UNIT       30 AT END OF TIME STEP        5, STRESS PERIOD       17

 DRAWDOWN WILL BE SAVED ON UNIT   31 AT END OF TIME STEP   5, STRESS PERIOD   17

 CLN HEAD WILL BE SAVED ON UNIT   77 AT END OF TIME STEP   5, STRESS PERIOD   17
1
  VOLUMETRIC BUDGET FOR ENTIRE MODEL AT END OF TIME STEP       5 IN STRESS PERIOD      17
  ---------------------------------------------------------------------------------------

     CUMULATIVE VOLUMES      L**3       RATES FOR THIS TIME STEP      L**3/T
     ------------------                 ------------------------

           IN:                                      IN:
           ---                                      ---
             STORAGE =        2442.7321               STORAGE =           4.9971
         CLN STORAGE =           0.2684           CLN STORAGE =       2.9418E-03
       CONSTANT HEAD =           0.0000         CONSTANT HEAD =           0.0000
      CLN CONST HEAD =           0.0000        CLN CONST HEAD =           0.0000
               WELLS =           0.0000                 WELLS =           0.0000

            TOTAL IN =        2443.0006              TOTAL IN =           5.0000

          OUT:                                     OUT:
          ----                                     ----
             STORAGE =           0.0000               STORAGE =           0.0000
         CLN STORAGE =           0.0000           CLN STORAGE =           0.0000
       CONSTANT HEAD =           0.0000         CONSTANT HEAD =           0.0000
      CLN CONST HEAD =           0.0000        CLN CONST HEAD =           0.0000
               WELLS =        2443.0005                 WELLS =           5.0000

           TOTAL OUT =        2443.0005             TOTAL OUT =           5.0000

            IN - OUT =       2.1209E-05              IN - OUT =       5.4674E-10

 PERCENT DISCREPANCY =           0.00     PERCENT DISCREPANCY =           0.00






          TIME SUMMARY AT END OF TIME STEP         5 IN STRESS PERIOD        17
                    SECONDS     MINUTES      HOURS       DAYS        YEARS
                    -----------------------------------------------------------
   TIME STEP LENGTH 2.07051E+05  3450.8      57.514      2.3964     6.56105E-03
 STRESS PERIOD TIME 7.43051E+05  12384.      206.40      8.6001     2.35459E-02
         TOTAL TIME 4.22150E+07 7.03584E+05  11726.      488.60      1.3377    
1
 ------------------------------------------------------------------------------------------------------------
 
 SOLVING FOR TRANSPORT 

 ------------------------------------------------------------------------------------------------------------------------
     1 CALLS TO SPARSE MATRIX SOLVER PACKAGE IN TRANSPORT TIME STEP       5 STRESS PERIOD      17 SPECIES  1

 TOTAL OF       1OUTER ITERATIONS
  MAXIMUM CHANGE FOR EACH ITERATION:
   MAX. CHANGE        NODE  MAX. CHANGE        NODE  MAX. CHANGE        NODE  MAX. CHANGE        NODE  MAX. CHANGE        NODE
 ------------------------------------------------------------------------------------------------------------------------------------
   0.12604E-10,        191

  MAXIMUM CHANGE FOR CLN NODE AT EACH ITERATION:
   MAX. CHANGE    CLN-CELL  MAX. CHANGE    CLN-CELL  MAX. CHANGE    CLN-CELL  MAX. CHANGE    CLN-CELL  MAX. CHANGE    CLN-CELL
 ------------------------------------------------------------------------------------------------------------------------------------
  -0.22879E-08,          2
     TRANSPORT SOLUTION COMPLETE FOR COMPONENT SPECIES NUMBER    1
     ------------------------------------------------------------
 UBUDSVU SAVING "    MASS STORAGE" ON UNIT 145 AT TIME STEP      5, STRESS PERIOD     17
 UBUDSVU SAVING "CLN MASS STORAGE" ON UNIT 145 AT TIME STEP      5, STRESS PERIOD     17
 UBUDSVU SAVING "CNST H MASS FLUX" ON UNIT 145 AT TIME STEP      5, STRESS PERIOD     17
 UBUDSVU SAVING "  WELL MASS FLUX" ON UNIT 145 AT TIME STEP      5, STRESS PERIOD     17

 TRANSPORT SOLUTION COMPLETE FOR ALL SPECIES, SORTING OUTPUT FOR CONCENTRATIONS AND MASS BALANCE
 ----------------------------------------------------------------------------------------------------
     TRANSPORT OUTPUT FOR COMPONENT SPECIES NUMBER    1
     ------------------------------------------------------------

 CONC WILL BE SAVED ON UNIT  132 AT END OF TIME STEP        5, STRESS PERIOD       17

 CLN CONC WILL BE SAVED ON UNIT  188 AT END OF TIME STEP   5, STRESS PERIOD   17
1
  VOLUMETRIC BUDGET FOR ENTIRE MODEL AT END OF TIME STEP       5 IN STRESS PERIOD      17
  ---------------------------------------------------------------------------------------

     CUMULATIVE VOLUMES      L**3       RATES FOR THIS TIME STEP      L**3/T
     ------------------                 ------------------------

           IN:                                      IN:
           ---                                      ---
        MASS STORAGE =         244.3001          MASS STORAGE =           0.5000
    CNST H MASS FLUX =           0.0000      CNST H MASS FLUX =           0.0000
      WELL MASS FLUX =           0.0000        WELL MASS FLUX =           0.0000

            TOTAL IN =         244.3001              TOTAL IN =           0.5000

          OUT:                                     OUT:
          ----                                     ----
        MASS STORAGE =           0.2827          MASS STORAGE =           0.0000
    CNST H MASS FLUX =           0.0000      CNST H MASS FLUX =           0.0000
      WELL MASS FLUX =         244.0173        WELL MASS FLUX =           0.5000

           TOTAL OUT =         244.3001             TOTAL OUT =           0.5000

            IN - OUT =       4.5156E-10              IN - OUT =           0.0000

 PERCENT DISCREPANCY =           0.00     PERCENT DISCREPANCY =           0.00






          TIME SUMMARY AT END OF TIME STEP         5 IN STRESS PERIOD        17
                    SECONDS     MINUTES      HOURS       DAYS        YEARS
                    -----------------------------------------------------------
   TIME STEP LENGTH 2.07051E+05  3450.8      57.514      2.3964     6.56105E-03
 STRESS PERIOD TIME 7.43051E+05  12384.      206.40      8.6001     2.35459E-02
         TOTAL TIME 4.22150E+07 7.03584E+05  11726.      488.60      1.3377    
1
 -------------------------------------------------------------------------------------
 
 SOLVING FOR HEAD 

 Outer-Iteration  Inner-Iteration  Backtracking  Number of        Incoming       Outgoing  Maximum HeadChange      Maximum Head Change
     Number           Count           Flag       Backtracks       Residual       Residual           Value              Location
        1                             0             0          0.354486E-01     0.354486E-01
        1                6                                                                       -0.126222                   400           GWF-node number
        1                6                                                                       -0.119562                     2           CLN-node number
        2                             0             0          0.968816E-07     0.968816E-07
        2                1                                                                        0.134402E-07               401           GWF-node number
        2                1                                                                        0.265298E-07                 1           CLN-node number
     2 CALLS TO SPARSE MATRIX SOLVER PACKAGE  IN FLOW TIME STEP       6 STRESS PERIOD      17

 TOTAL OF       2OUTER ITERATIONS
  MAXIMUM CHANGE FOR EACH ITERATION:
   MAX. CHANGE        NODE  MAX. CHANGE        NODE  MAX. CHANGE        NODE  MAX. CHANGE        NODE  MAX. CHANGE        NODE
 ------------------------------------------------------------------------------------------------------------------------------------
  -0.12622    ,        400  0.13440E-07,        401

  MAXIMUM CHANGE FOR CLN NODE AT EACH ITERATION:
   MAX. CHANGE    CLN-CELL  MAX. CHANGE    CLN-CELL  MAX. CHANGE    CLN-CELL  MAX. CHANGE    CLN-CELL  MAX. CHANGE    CLN-CELL
 ------------------------------------------------------------------------------------------------------------------------------------
  -0.11956    ,          2  0.26530E-07,          1

 HEAD/DRAWDOWN PRINTOUT FLAG = 1     TOTAL BUDGET PRINTOUT FLAG = 1
 CELL-BY-CELL FLOW TERM FLAG = 1
 CONCENTRATION PRINTOUT FLAG = 1

 OUTPUT FLAGS FOR ALL LAYERS ARE THE SAME:
   HEAD    DRAWDOWN  HEAD  DRAWDOWN    CONC    CONC
 PRINTOUT  PRINTOUT  SAVE    SAVE    PRINTOUT  SAVE
 ---------------------------------------------------
     0         0       1       1       0       1
 UBUDSVU SAVING "         STORAGE" ON UNIT  50 AT TIME STEP      6, STRESS PERIOD     17
 UBUDSV SAVING "     CLN STORAGE" ON UNIT 144 AT TIME STEP      6, STRESS PERIOD      17
 UBUDSVU SAVING "   CONSTANT HEAD" ON UNIT  50 AT TIME STEP      6, STRESS PERIOD     17
 UBUDSVU SAVING "   FLOW JA FACE " ON UNIT  50 AT TIME STEP      6, STRESS PERIOD     17
 UBUDSVU SAVING "             CLN" ON UNIT  50 AT TIME STEP      6, STRESS PERIOD     17
 UBUDSVU SAVING "  CLN CONST HEAD" ON UNIT 144 AT TIME STEP      6, STRESS PERIOD     17
 UBUDSVU SAVING "   FLOW CLN FACE" ON UNIT 144 AT TIME STEP      6, STRESS PERIOD     17
 UBUDSVU SAVING "             GWF" ON UNIT 144 AT TIME STEP      6, STRESS PERIOD     17
 UBUDSVU SAVING "           WELLS" ON UNIT  50 AT TIME STEP      6, STRESS PERIOD     17
 UBUDSVU SAVING "           WELLS" ON UNIT 144 AT TIME STEP      6, STRESS PERIOD     17

 HEAD WILL BE SAVED ON UNIT       30 AT END OF TIME STEP        6, STRESS PERIOD       17

 DRAWDOWN WILL BE SAVED ON UNIT   31 AT END OF TIME STEP   6, STRESS PERIOD   17

 CLN HEAD WILL BE SAVED ON UNIT   77 AT END OF TIME STEP   6, STRESS PERIOD   17
1
  VOLUMETRIC BUDGET FOR ENTIRE MODEL AT END OF TIME STEP       6 IN STRESS PERIOD      17
  ---------------------------------------------------------------------------------------

     CUMULATIVE VOLUMES      L**3       RATES FOR THIS TIME STEP      L**3/T
     ------------------                 ------------------------

           IN:                                      IN:
           ---                                      ---
             STORAGE =        2457.1022               STORAGE =           4.9971
         CLN STORAGE =           0.2769           CLN STORAGE =       2.9389E-03
       CONSTANT HEAD =           0.0000         CONSTANT HEAD =           0.0000
      CLN CONST HEAD =           0.0000        CLN CONST HEAD =           0.0000
               WELLS =           0.0000                 WELLS =           0.0000

            TOTAL IN =        2457.3791              TOTAL IN =           5.0000

          OUT:                                     OUT:
          ----                                     ----
             STORAGE =           0.0000               STORAGE =           0.0000
         CLN STORAGE =           0.0000           CLN STORAGE =           0.0000
       CONSTANT HEAD =           0.0000         CONSTANT HEAD =           0.0000
      CLN CONST HEAD =           0.0000        CLN CONST HEAD =           0.0000
               WELLS =        2457.3791                 WELLS =           5.0000

           TOTAL OUT =        2457.3791             TOTAL OUT =           5.0000

            IN - OUT =       2.1158E-05              IN - OUT =      -1.7719E-08

 PERCENT DISCREPANCY =           0.00     PERCENT DISCREPANCY =          -0.00






          TIME SUMMARY AT END OF TIME STEP         6 IN STRESS PERIOD        17
                    SECONDS     MINUTES      HOURS       DAYS        YEARS
                    -----------------------------------------------------------
   TIME STEP LENGTH 2.48461E+05  4141.0      69.017      2.8757     7.87326E-03
 STRESS PERIOD TIME 9.91512E+05  16525.      275.42      11.476     3.14191E-02
         TOTAL TIME 4.24635E+07 7.07725E+05  11795.      491.48      1.3456    
1
 ------------------------------------------------------------------------------------------------------------
 
 SOLVING FOR TRANSPORT 

 ------------------------------------------------------------------------------------------------------------------------
     1 CALLS TO SPARSE MATRIX SOLVER PACKAGE IN TRANSPORT TIME STEP       6 STRESS PERIOD      17 SPECIES  1

 TOTAL OF       1OUTER ITERATIONS
  MAXIMUM CHANGE FOR EACH ITERATION:
   MAX. CHANGE        NODE  MAX. CHANGE        NODE  MAX. CHANGE        NODE  MAX. CHANGE        NODE  MAX. CHANGE        NODE
 ------------------------------------------------------------------------------------------------------------------------------------
  -0.52174E-11,        191

  MAXIMUM CHANGE FOR CLN NODE AT EACH ITERATION:
   MAX. CHANGE    CLN-CELL  MAX. CHANGE    CLN-CELL  MAX. CHANGE    CLN-CELL  MAX. CHANGE    CLN-CELL  MAX. CHANGE    CLN-CELL
 ------------------------------------------------------------------------------------------------------------------------------------
  -0.12747E-08,          1
     TRANSPORT SOLUTION COMPLETE FOR COMPONENT SPECIES NUMBER    1
     ------------------------------------------------------------
 UBUDSVU SAVING "    MASS STORAGE" ON UNIT 145 AT TIME STEP      6, STRESS PERIOD     17
 UBUDSVU SAVING "CLN MASS STORAGE" ON UNIT 145 AT TIME STEP      6, STRESS PERIOD     17
 UBUDSVU SAVING "CNST H MASS FLUX" ON UNIT 145 AT TIME STEP      6, STRESS PERIOD     17
 UBUDSVU SAVING "  WELL MASS FLUX" ON UNIT 145 AT TIME STEP      6, STRESS PERIOD     17

 TRANSPORT SOLUTION COMPLETE FOR ALL SPECIES, SORTING OUTPUT FOR CONCENTRATIONS AND MASS BALANCE
 ----------------------------------------------------------------------------------------------------
     TRANSPORT OUTPUT FOR COMPONENT SPECIES NUMBER    1
     ------------------------------------------------------------

 CONC WILL BE SAVED ON UNIT  132 AT END OF TIME STEP        6, STRESS PERIOD       17

 CLN CONC WILL BE SAVED ON UNIT  188 AT END OF TIME STEP   6, STRESS PERIOD   17
1
  VOLUMETRIC BUDGET FOR ENTIRE MODEL AT END OF TIME STEP       6 IN STRESS PERIOD      17
  ---------------------------------------------------------------------------------------

     CUMULATIVE VOLUMES      L**3       RATES FOR THIS TIME STEP      L**3/T
     ------------------                 ------------------------

           IN:                                      IN:
           ---                                      ---
        MASS STORAGE =         245.7379          MASS STORAGE =           0.5000
    CNST H MASS FLUX =           0.0000      CNST H MASS FLUX =           0.0000
      WELL MASS FLUX =           0.0000        WELL MASS FLUX =           0.0000

            TOTAL IN =         245.7379              TOTAL IN =           0.5000

          OUT:                                     OUT:
          ----                                     ----
        MASS STORAGE =           0.2827          MASS STORAGE =       1.9364E-10
    CNST H MASS FLUX =           0.0000      CNST H MASS FLUX =           0.0000
      WELL MASS FLUX =         245.4552        WELL MASS FLUX =           0.5000

           TOTAL OUT =         245.7379             TOTAL OUT =           0.5000

            IN - OUT =       4.4983E-10              IN - OUT =      -1.9364E-10

 PERCENT DISCREPANCY =           0.00     PERCENT DISCREPANCY =          -0.00






          TIME SUMMARY AT END OF TIME STEP         6 IN STRESS PERIOD        17
                    SECONDS     MINUTES      HOURS       DAYS        YEARS
                    -----------------------------------------------------------
   TIME STEP LENGTH 2.48461E+05  4141.0      69.017      2.8757     7.87326E-03
 STRESS PERIOD TIME 9.91512E+05  16525.      275.42      11.476     3.14191E-02
         TOTAL TIME 4.24635E+07 7.07725E+05  11795.      491.48      1.3456    
1
 -------------------------------------------------------------------------------------
 
 SOLVING FOR HEAD 

 Outer-Iteration  Inner-Iteration  Backtracking  Number of        Incoming       Outgoing  Maximum HeadChange      Maximum Head Change
     Number           Count           Flag       Backtracks       Residual       Residual           Value              Location
        1                             0             0          0.354055E-01     0.354055E-01
        1                6                                                                       -0.151257                   400           GWF-node number
        1                6                                                                       -0.143303                     2           CLN-node number
        2                             0             0          0.205860E-06     0.205860E-06
        2                1                                                                        0.594561E-07               190           GWF-node number
        2                1                                                                        0.163084E-06                 1           CLN-node number
     2 CALLS TO SPARSE MATRIX SOLVER PACKAGE  IN FLOW TIME STEP       7 STRESS PERIOD      17

 TOTAL OF       2OUTER ITERATIONS
  MAXIMUM CHANGE FOR EACH ITERATION:
   MAX. CHANGE        NODE  MAX. CHANGE        NODE  MAX. CHANGE        NODE  MAX. CHANGE        NODE  MAX. CHANGE        NODE
 ------------------------------------------------------------------------------------------------------------------------------------
  -0.15126    ,        400  0.59456E-07,        190

  MAXIMUM CHANGE FOR CLN NODE AT EACH ITERATION:
   MAX. CHANGE    CLN-CELL  MAX. CHANGE    CLN-CELL  MAX. CHANGE    CLN-CELL  MAX. CHANGE    CLN-CELL  MAX. CHANGE    CLN-CELL
 ------------------------------------------------------------------------------------------------------------------------------------
  -0.14330    ,          2  0.16308E-06,          1

 HEAD/DRAWDOWN PRINTOUT FLAG = 1     TOTAL BUDGET PRINTOUT FLAG = 1
 CELL-BY-CELL FLOW TERM FLAG = 1
 CONCENTRATION PRINTOUT FLAG = 1

 OUTPUT FLAGS FOR ALL LAYERS ARE THE SAME:
   HEAD    DRAWDOWN  HEAD  DRAWDOWN    CONC    CONC
 PRINTOUT  PRINTOUT  SAVE    SAVE    PRINTOUT  SAVE
 ---------------------------------------------------
     0         0       1       1       0       1
 UBUDSVU SAVING "         STORAGE" ON UNIT  50 AT TIME STEP      7, STRESS PERIOD     17
 UBUDSV SAVING "     CLN STORAGE" ON UNIT 144 AT TIME STEP      7, STRESS PERIOD      17
 UBUDSVU SAVING "   CONSTANT HEAD" ON UNIT  50 AT TIME STEP      7, STRESS PERIOD     17
 UBUDSVU SAVING "   FLOW JA FACE " ON UNIT  50 AT TIME STEP      7, STRESS PERIOD     17
 UBUDSVU SAVING "             CLN" ON UNIT  50 AT TIME STEP      7, STRESS PERIOD     17
 UBUDSVU SAVING "  CLN CONST HEAD" ON UNIT 144 AT TIME STEP      7, STRESS PERIOD     17
 UBUDSVU SAVING "   FLOW CLN FACE" ON UNIT 144 AT TIME STEP      7, STRESS PERIOD     17
 UBUDSVU SAVING "             GWF" ON UNIT 144 AT TIME STEP      7, STRESS PERIOD     17
 UBUDSVU SAVING "           WELLS" ON UNIT  50 AT TIME STEP      7, STRESS PERIOD     17
 UBUDSVU SAVING "           WELLS" ON UNIT 144 AT TIME STEP      7, STRESS PERIOD     17

 HEAD WILL BE SAVED ON UNIT       30 AT END OF TIME STEP        7, STRESS PERIOD       17

 DRAWDOWN WILL BE SAVED ON UNIT   31 AT END OF TIME STEP   7, STRESS PERIOD   17

 CLN HEAD WILL BE SAVED ON UNIT   77 AT END OF TIME STEP   7, STRESS PERIOD   17
1
  VOLUMETRIC BUDGET FOR ENTIRE MODEL AT END OF TIME STEP       7 IN STRESS PERIOD      17
  ---------------------------------------------------------------------------------------

     CUMULATIVE VOLUMES      L**3       RATES FOR THIS TIME STEP      L**3/T
     ------------------                 ------------------------

           IN:                                      IN:
           ---                                      ---
             STORAGE =        2474.3463               STORAGE =           4.9971
         CLN STORAGE =           0.2870           CLN STORAGE =       2.9354E-03
       CONSTANT HEAD =           0.0000         CONSTANT HEAD =           0.0000
      CLN CONST HEAD =           0.0000        CLN CONST HEAD =           0.0000
               WELLS =           0.0000                 WELLS =           0.0000

            TOTAL IN =        2474.6334              TOTAL IN =           5.0000

          OUT:                                     OUT:
          ----                                     ----
             STORAGE =           0.0000               STORAGE =           0.0000
         CLN STORAGE =           0.0000           CLN STORAGE =           0.0000
       CONSTANT HEAD =           0.0000         CONSTANT HEAD =           0.0000
      CLN CONST HEAD =           0.0000        CLN CONST HEAD =           0.0000
               WELLS =        2474.6333                 WELLS =           5.0000

           TOTAL OUT =        2474.6333             TOTAL OUT =           5.0000

            IN - OUT =       2.1142E-05              IN - OUT =      -4.4960E-09

 PERCENT DISCREPANCY =           0.00     PERCENT DISCREPANCY =          -0.00






          TIME SUMMARY AT END OF TIME STEP         7 IN STRESS PERIOD        17
                    SECONDS     MINUTES      HOURS       DAYS        YEARS
                    -----------------------------------------------------------
   TIME STEP LENGTH 2.98153E+05  4969.2      82.820      3.4509     9.44791E-03
 STRESS PERIOD TIME 1.28967E+06  21494.      358.24      14.927     4.08670E-02
         TOTAL TIME 4.27617E+07 7.12694E+05  11878.      494.93      1.3550    
1
 ------------------------------------------------------------------------------------------------------------
 
 SOLVING FOR TRANSPORT 

 ------------------------------------------------------------------------------------------------------------------------
     1 CALLS TO SPARSE MATRIX SOLVER PACKAGE IN TRANSPORT TIME STEP       7 STRESS PERIOD      17 SPECIES  1

 TOTAL OF       1OUTER ITERATIONS
  MAXIMUM CHANGE FOR EACH ITERATION:
   MAX. CHANGE        NODE  MAX. CHANGE        NODE  MAX. CHANGE        NODE  MAX. CHANGE        NODE  MAX. CHANGE        NODE
 ------------------------------------------------------------------------------------------------------------------------------------
   0.13211E-10,        191

  MAXIMUM CHANGE FOR CLN NODE AT EACH ITERATION:
   MAX. CHANGE    CLN-CELL  MAX. CHANGE    CLN-CELL  MAX. CHANGE    CLN-CELL  MAX. CHANGE    CLN-CELL  MAX. CHANGE    CLN-CELL
 ------------------------------------------------------------------------------------------------------------------------------------
  -0.87991E-09,          2
     TRANSPORT SOLUTION COMPLETE FOR COMPONENT SPECIES NUMBER    1
     ------------------------------------------------------------
 UBUDSVU SAVING "    MASS STORAGE" ON UNIT 145 AT TIME STEP      7, STRESS PERIOD     17
 UBUDSVU SAVING "CLN MASS STORAGE" ON UNIT 145 AT TIME STEP      7, STRESS PERIOD     17
 UBUDSVU SAVING "CNST H MASS FLUX" ON UNIT 145 AT TIME STEP      7, STRESS PERIOD     17
 UBUDSVU SAVING "  WELL MASS FLUX" ON UNIT 145 AT TIME STEP      7, STRESS PERIOD     17

 TRANSPORT SOLUTION COMPLETE FOR ALL SPECIES, SORTING OUTPUT FOR CONCENTRATIONS AND MASS BALANCE
 ----------------------------------------------------------------------------------------------------
     TRANSPORT OUTPUT FOR COMPONENT SPECIES NUMBER    1
     ------------------------------------------------------------

 CONC WILL BE SAVED ON UNIT  132 AT END OF TIME STEP        7, STRESS PERIOD       17

 CLN CONC WILL BE SAVED ON UNIT  188 AT END OF TIME STEP   7, STRESS PERIOD   17
1
  VOLUMETRIC BUDGET FOR ENTIRE MODEL AT END OF TIME STEP       7 IN STRESS PERIOD      17
  ---------------------------------------------------------------------------------------

     CUMULATIVE VOLUMES      L**3       RATES FOR THIS TIME STEP      L**3/T
     ------------------                 ------------------------

           IN:                                      IN:
           ---                                      ---
        MASS STORAGE =         247.4633          MASS STORAGE =           0.5000
    CNST H MASS FLUX =           0.0000      CNST H MASS FLUX =           0.0000
      WELL MASS FLUX =           0.0000        WELL MASS FLUX =           0.0000

            TOTAL IN =         247.4633              TOTAL IN =           0.5000

          OUT:                                     OUT:
          ----                                     ----
        MASS STORAGE =           0.2827          MASS STORAGE =           0.0000
    CNST H MASS FLUX =           0.0000      CNST H MASS FLUX =           0.0000
      WELL MASS FLUX =         247.1806        WELL MASS FLUX =           0.5000

           TOTAL OUT =         247.4633             TOTAL OUT =           0.5000

            IN - OUT =       4.5563E-10              IN - OUT =           0.0000

 PERCENT DISCREPANCY =           0.00     PERCENT DISCREPANCY =           0.00






          TIME SUMMARY AT END OF TIME STEP         7 IN STRESS PERIOD        17
                    SECONDS     MINUTES      HOURS       DAYS        YEARS
                    -----------------------------------------------------------
   TIME STEP LENGTH 2.98153E+05  4969.2      82.820      3.4509     9.44791E-03
 STRESS PERIOD TIME 1.28967E+06  21494.      358.24      14.927     4.08670E-02
         TOTAL TIME 4.27617E+07 7.12694E+05  11878.      494.93      1.3550    
1
 -------------------------------------------------------------------------------------
 
 SOLVING FOR HEAD 

 Outer-Iteration  Inner-Iteration  Backtracking  Number of        Incoming       Outgoing  Maximum HeadChange      Maximum Head Change
     Number           Count           Flag       Backtracks       Residual       Residual           Value              Location
        1                             0             0          0.353541E-01     0.353541E-01
        1                6                                                                       -0.181209                   400           GWF-node number
        1                6                                                                       -0.171718                     3           CLN-node number
        2                             0             0          0.440312E-06     0.440312E-06
        2                1                                                                        0.124197E-06               416           GWF-node number
        2                1                                                                        0.330331E-07                 1           CLN-node number
     2 CALLS TO SPARSE MATRIX SOLVER PACKAGE  IN FLOW TIME STEP       8 STRESS PERIOD      17

 TOTAL OF       2OUTER ITERATIONS
  MAXIMUM CHANGE FOR EACH ITERATION:
   MAX. CHANGE        NODE  MAX. CHANGE        NODE  MAX. CHANGE        NODE  MAX. CHANGE        NODE  MAX. CHANGE        NODE
 ------------------------------------------------------------------------------------------------------------------------------------
  -0.18121    ,        400  0.12420E-06,        416

  MAXIMUM CHANGE FOR CLN NODE AT EACH ITERATION:
   MAX. CHANGE    CLN-CELL  MAX. CHANGE    CLN-CELL  MAX. CHANGE    CLN-CELL  MAX. CHANGE    CLN-CELL  MAX. CHANGE    CLN-CELL
 ------------------------------------------------------------------------------------------------------------------------------------
  -0.17172    ,          3  0.33033E-07,          1

 HEAD/DRAWDOWN PRINTOUT FLAG = 1     TOTAL BUDGET PRINTOUT FLAG = 1
 CELL-BY-CELL FLOW TERM FLAG = 1
 CONCENTRATION PRINTOUT FLAG = 1

 OUTPUT FLAGS FOR ALL LAYERS ARE THE SAME:
   HEAD    DRAWDOWN  HEAD  DRAWDOWN    CONC    CONC
 PRINTOUT  PRINTOUT  SAVE    SAVE    PRINTOUT  SAVE
 ---------------------------------------------------
     0         0       1       1       0       1
 UBUDSVU SAVING "         STORAGE" ON UNIT  50 AT TIME STEP      8, STRESS PERIOD     17
 UBUDSV SAVING "     CLN STORAGE" ON UNIT 144 AT TIME STEP      8, STRESS PERIOD      17
 UBUDSVU SAVING "   CONSTANT HEAD" ON UNIT  50 AT TIME STEP      8, STRESS PERIOD     17
 UBUDSVU SAVING "   FLOW JA FACE " ON UNIT  50 AT TIME STEP      8, STRESS PERIOD     17
 UBUDSVU SAVING "             CLN" ON UNIT  50 AT TIME STEP      8, STRESS PERIOD     17
 UBUDSVU SAVING "  CLN CONST HEAD" ON UNIT 144 AT TIME STEP      8, STRESS PERIOD     17
 UBUDSVU SAVING "   FLOW CLN FACE" ON UNIT 144 AT TIME STEP      8, STRESS PERIOD     17
 UBUDSVU SAVING "             GWF" ON UNIT 144 AT TIME STEP      8, STRESS PERIOD     17
 UBUDSVU SAVING "           WELLS" ON UNIT  50 AT TIME STEP      8, STRESS PERIOD     17
 UBUDSVU SAVING "           WELLS" ON UNIT 144 AT TIME STEP      8, STRESS PERIOD     17

 HEAD WILL BE SAVED ON UNIT       30 AT END OF TIME STEP        8, STRESS PERIOD       17

 DRAWDOWN WILL BE SAVED ON UNIT   31 AT END OF TIME STEP   8, STRESS PERIOD   17

 CLN HEAD WILL BE SAVED ON UNIT   77 AT END OF TIME STEP   8, STRESS PERIOD   17
1
  VOLUMETRIC BUDGET FOR ENTIRE MODEL AT END OF TIME STEP       8 IN STRESS PERIOD      17
  ---------------------------------------------------------------------------------------

     CUMULATIVE VOLUMES      L**3       RATES FOR THIS TIME STEP      L**3/T
     ------------------                 ------------------------

           IN:                                      IN:
           ---                                      ---
             STORAGE =        2495.0393               STORAGE =           4.9971
         CLN STORAGE =           0.2991           CLN STORAGE =       2.9312E-03
       CONSTANT HEAD =           0.0000         CONSTANT HEAD =           0.0000
      CLN CONST HEAD =           0.0000        CLN CONST HEAD =           0.0000
               WELLS =           0.0000                 WELLS =           0.0000

            TOTAL IN =        2495.3385              TOTAL IN =           5.0000

          OUT:                                     OUT:
          ----                                     ----
             STORAGE =           0.0000               STORAGE =           0.0000
         CLN STORAGE =           0.0000           CLN STORAGE =           0.0000
       CONSTANT HEAD =           0.0000         CONSTANT HEAD =           0.0000
      CLN CONST HEAD =           0.0000        CLN CONST HEAD =           0.0000
               WELLS =        2495.3384                 WELLS =           5.0000

           TOTAL OUT =        2495.3384             TOTAL OUT =           5.0000

            IN - OUT =       2.1232E-05              IN - OUT =       2.1549E-08

 PERCENT DISCREPANCY =           0.00     PERCENT DISCREPANCY =           0.00






          TIME SUMMARY AT END OF TIME STEP         8 IN STRESS PERIOD        17
                    SECONDS     MINUTES      HOURS       DAYS        YEARS
                    -----------------------------------------------------------
   TIME STEP LENGTH 3.57784E+05  5963.1      99.384      4.1410     1.13375E-02
 STRESS PERIOD TIME 1.64745E+06  27457.      457.62      19.068     5.22045E-02
         TOTAL TIME 4.31194E+07 7.18657E+05  11978.      499.07      1.3664    
1
 ------------------------------------------------------------------------------------------------------------
 
 SOLVING FOR TRANSPORT 

 ------------------------------------------------------------------------------------------------------------------------
     1 CALLS TO SPARSE MATRIX SOLVER PACKAGE IN TRANSPORT TIME STEP       8 STRESS PERIOD      17 SPECIES  1

 TOTAL OF       1OUTER ITERATIONS
  MAXIMUM CHANGE FOR EACH ITERATION:
   MAX. CHANGE        NODE  MAX. CHANGE        NODE  MAX. CHANGE        NODE  MAX. CHANGE        NODE  MAX. CHANGE        NODE
 ------------------------------------------------------------------------------------------------------------------------------------
  -0.69365E-11,        191

  MAXIMUM CHANGE FOR CLN NODE AT EACH ITERATION:
   MAX. CHANGE    CLN-CELL  MAX. CHANGE    CLN-CELL  MAX. CHANGE    CLN-CELL  MAX. CHANGE    CLN-CELL  MAX. CHANGE    CLN-CELL
 ------------------------------------------------------------------------------------------------------------------------------------
   0.20812E-08,          2
     TRANSPORT SOLUTION COMPLETE FOR COMPONENT SPECIES NUMBER    1
     ------------------------------------------------------------
 UBUDSVU SAVING "    MASS STORAGE" ON UNIT 145 AT TIME STEP      8, STRESS PERIOD     17
 UBUDSVU SAVING "CLN MASS STORAGE" ON UNIT 145 AT TIME STEP      8, STRESS PERIOD     17
 UBUDSVU SAVING "CNST H MASS FLUX" ON UNIT 145 AT TIME STEP      8, STRESS PERIOD     17
 UBUDSVU SAVING "  WELL MASS FLUX" ON UNIT 145 AT TIME STEP      8, STRESS PERIOD     17

 TRANSPORT SOLUTION COMPLETE FOR ALL SPECIES, SORTING OUTPUT FOR CONCENTRATIONS AND MASS BALANCE
 ----------------------------------------------------------------------------------------------------
     TRANSPORT OUTPUT FOR COMPONENT SPECIES NUMBER    1
     ------------------------------------------------------------

 CONC WILL BE SAVED ON UNIT  132 AT END OF TIME STEP        8, STRESS PERIOD       17

 CLN CONC WILL BE SAVED ON UNIT  188 AT END OF TIME STEP   8, STRESS PERIOD   17
1
  VOLUMETRIC BUDGET FOR ENTIRE MODEL AT END OF TIME STEP       8 IN STRESS PERIOD      17
  ---------------------------------------------------------------------------------------

     CUMULATIVE VOLUMES      L**3       RATES FOR THIS TIME STEP      L**3/T
     ------------------                 ------------------------

           IN:                                      IN:
           ---                                      ---
        MASS STORAGE =         249.5339          MASS STORAGE =           0.5000
    CNST H MASS FLUX =           0.0000      CNST H MASS FLUX =           0.0000
      WELL MASS FLUX =           0.0000        WELL MASS FLUX =           0.0000

            TOTAL IN =         249.5339              TOTAL IN =           0.5000

          OUT:                                     OUT:
          ----                                     ----
        MASS STORAGE =           0.2827          MASS STORAGE =       4.3570E-10
    CNST H MASS FLUX =           0.0000      CNST H MASS FLUX =           0.0000
      WELL MASS FLUX =         249.2511        WELL MASS FLUX =           0.5000

           TOTAL OUT =         249.5339             TOTAL OUT =           0.5000

            IN - OUT =       4.5074E-10              IN - OUT =      -4.3570E-10

 PERCENT DISCREPANCY =           0.00     PERCENT DISCREPANCY =          -0.00






          TIME SUMMARY AT END OF TIME STEP         8 IN STRESS PERIOD        17
                    SECONDS     MINUTES      HOURS       DAYS        YEARS
                    -----------------------------------------------------------
   TIME STEP LENGTH 3.57784E+05  5963.1      99.384      4.1410     1.13375E-02
 STRESS PERIOD TIME 1.64745E+06  27457.      457.62      19.068     5.22045E-02
         TOTAL TIME 4.31194E+07 7.18657E+05  11978.      499.07      1.3664    
1
 -------------------------------------------------------------------------------------
 
 SOLVING FOR HEAD 

 Outer-Iteration  Inner-Iteration  Backtracking  Number of        Incoming       Outgoing  Maximum HeadChange      Maximum Head Change
     Number           Count           Flag       Backtracks       Residual       Residual           Value              Location
        1                             0             0          0.352932E-01     0.352932E-01
        1                6                                                                       -0.217022                   400           GWF-node number
        1                6                                                                       -0.205710                     3           CLN-node number
        2                             0             0          0.947329E-06     0.947329E-06
        2                1                                                                        0.338729E-06               416           GWF-node number
        2                1                                                                        0.229141E-06                 1           CLN-node number
     2 CALLS TO SPARSE MATRIX SOLVER PACKAGE  IN FLOW TIME STEP       9 STRESS PERIOD      17

 TOTAL OF       2OUTER ITERATIONS
  MAXIMUM CHANGE FOR EACH ITERATION:
   MAX. CHANGE        NODE  MAX. CHANGE        NODE  MAX. CHANGE        NODE  MAX. CHANGE        NODE  MAX. CHANGE        NODE
 ------------------------------------------------------------------------------------------------------------------------------------
  -0.21702    ,        400  0.33873E-06,        416

  MAXIMUM CHANGE FOR CLN NODE AT EACH ITERATION:
   MAX. CHANGE    CLN-CELL  MAX. CHANGE    CLN-CELL  MAX. CHANGE    CLN-CELL  MAX. CHANGE    CLN-CELL  MAX. CHANGE    CLN-CELL
 ------------------------------------------------------------------------------------------------------------------------------------
  -0.20571    ,          3  0.22914E-06,          1

 HEAD/DRAWDOWN PRINTOUT FLAG = 1     TOTAL BUDGET PRINTOUT FLAG = 1
 CELL-BY-CELL FLOW TERM FLAG = 1
 CONCENTRATION PRINTOUT FLAG = 1

 OUTPUT FLAGS FOR ALL LAYERS ARE THE SAME:
   HEAD    DRAWDOWN  HEAD  DRAWDOWN    CONC    CONC
 PRINTOUT  PRINTOUT  SAVE    SAVE    PRINTOUT  SAVE
 ---------------------------------------------------
     0         0       1       1       0       1
 UBUDSVU SAVING "         STORAGE" ON UNIT  50 AT TIME STEP      9, STRESS PERIOD     17
 UBUDSV SAVING "     CLN STORAGE" ON UNIT 144 AT TIME STEP      9, STRESS PERIOD      17
 UBUDSVU SAVING "   CONSTANT HEAD" ON UNIT  50 AT TIME STEP      9, STRESS PERIOD     17
 UBUDSVU SAVING "   FLOW JA FACE " ON UNIT  50 AT TIME STEP      9, STRESS PERIOD     17
 UBUDSVU SAVING "             CLN" ON UNIT  50 AT TIME STEP      9, STRESS PERIOD     17
 UBUDSVU SAVING "  CLN CONST HEAD" ON UNIT 144 AT TIME STEP      9, STRESS PERIOD     17
 UBUDSVU SAVING "   FLOW CLN FACE" ON UNIT 144 AT TIME STEP      9, STRESS PERIOD     17
 UBUDSVU SAVING "             GWF" ON UNIT 144 AT TIME STEP      9, STRESS PERIOD     17
 UBUDSVU SAVING "           WELLS" ON UNIT  50 AT TIME STEP      9, STRESS PERIOD     17
 UBUDSVU SAVING "           WELLS" ON UNIT 144 AT TIME STEP      9, STRESS PERIOD     17

 HEAD WILL BE SAVED ON UNIT       30 AT END OF TIME STEP        9, STRESS PERIOD       17

 DRAWDOWN WILL BE SAVED ON UNIT   31 AT END OF TIME STEP   9, STRESS PERIOD   17

 CLN HEAD WILL BE SAVED ON UNIT   77 AT END OF TIME STEP   9, STRESS PERIOD   17
1
  VOLUMETRIC BUDGET FOR ENTIRE MODEL AT END OF TIME STEP       9 IN STRESS PERIOD      17
  ---------------------------------------------------------------------------------------

     CUMULATIVE VOLUMES      L**3       RATES FOR THIS TIME STEP      L**3/T
     ------------------                 ------------------------

           IN:                                      IN:
           ---                                      ---
             STORAGE =        2519.8709               STORAGE =           4.9971
         CLN STORAGE =           0.3137           CLN STORAGE =       2.9262E-03
       CONSTANT HEAD =           0.0000         CONSTANT HEAD =           0.0000
      CLN CONST HEAD =           0.0000        CLN CONST HEAD =           0.0000
               WELLS =           0.0000                 WELLS =           0.0000

            TOTAL IN =        2520.1846              TOTAL IN =           5.0000

          OUT:                                     OUT:
          ----                                     ----
             STORAGE =           0.0000               STORAGE =           0.0000
         CLN STORAGE =           0.0000           CLN STORAGE =           0.0000
       CONSTANT HEAD =           0.0000         CONSTANT HEAD =           0.0000
      CLN CONST HEAD =           0.0000        CLN CONST HEAD =           0.0000
               WELLS =        2520.1846                 WELLS =           5.0000

           TOTAL OUT =        2520.1846             TOTAL OUT =           5.0000

            IN - OUT =       2.1312E-05              IN - OUT =       1.6193E-08

 PERCENT DISCREPANCY =           0.00     PERCENT DISCREPANCY =           0.00






          TIME SUMMARY AT END OF TIME STEP         9 IN STRESS PERIOD        17
                    SECONDS     MINUTES      HOURS       DAYS        YEARS
                    -----------------------------------------------------------
   TIME STEP LENGTH 4.29341E+05  7155.7      119.26      4.9692     1.36050E-02
 STRESS PERIOD TIME 2.07679E+06  34613.      576.89      24.037     6.58095E-02
         TOTAL TIME 4.35488E+07 7.25813E+05  12097.      504.04      1.3800    
1
 ------------------------------------------------------------------------------------------------------------
 
 SOLVING FOR TRANSPORT 

 ------------------------------------------------------------------------------------------------------------------------
     1 CALLS TO SPARSE MATRIX SOLVER PACKAGE IN TRANSPORT TIME STEP       9 STRESS PERIOD      17 SPECIES  1

 TOTAL OF       1OUTER ITERATIONS
  MAXIMUM CHANGE FOR EACH ITERATION:
   MAX. CHANGE        NODE  MAX. CHANGE        NODE  MAX. CHANGE        NODE  MAX. CHANGE        NODE  MAX. CHANGE        NODE
 ------------------------------------------------------------------------------------------------------------------------------------
   0.31380E-10,        191

  MAXIMUM CHANGE FOR CLN NODE AT EACH ITERATION:
   MAX. CHANGE    CLN-CELL  MAX. CHANGE    CLN-CELL  MAX. CHANGE    CLN-CELL  MAX. CHANGE    CLN-CELL  MAX. CHANGE    CLN-CELL
 ------------------------------------------------------------------------------------------------------------------------------------
   0.11486E-08,          1
     TRANSPORT SOLUTION COMPLETE FOR COMPONENT SPECIES NUMBER    1
     ------------------------------------------------------------
 UBUDSVU SAVING "    MASS STORAGE" ON UNIT 145 AT TIME STEP      9, STRESS PERIOD     17
 UBUDSVU SAVING "CLN MASS STORAGE" ON UNIT 145 AT TIME STEP      9, STRESS PERIOD     17
 UBUDSVU SAVING "CNST H MASS FLUX" ON UNIT 145 AT TIME STEP      9, STRESS PERIOD     17
 UBUDSVU SAVING "  WELL MASS FLUX" ON UNIT 145 AT TIME STEP      9, STRESS PERIOD     17

 TRANSPORT SOLUTION COMPLETE FOR ALL SPECIES, SORTING OUTPUT FOR CONCENTRATIONS AND MASS BALANCE
 ----------------------------------------------------------------------------------------------------
     TRANSPORT OUTPUT FOR COMPONENT SPECIES NUMBER    1
     ------------------------------------------------------------

 CONC WILL BE SAVED ON UNIT  132 AT END OF TIME STEP        9, STRESS PERIOD       17

 CLN CONC WILL BE SAVED ON UNIT  188 AT END OF TIME STEP   9, STRESS PERIOD   17
1
  VOLUMETRIC BUDGET FOR ENTIRE MODEL AT END OF TIME STEP       9 IN STRESS PERIOD      17
  ---------------------------------------------------------------------------------------

     CUMULATIVE VOLUMES      L**3       RATES FOR THIS TIME STEP      L**3/T
     ------------------                 ------------------------

           IN:                                      IN:
           ---                                      ---
        MASS STORAGE =         252.0185          MASS STORAGE =           0.5000
    CNST H MASS FLUX =           0.0000      CNST H MASS FLUX =           0.0000
      WELL MASS FLUX =           0.0000        WELL MASS FLUX =           0.0000

            TOTAL IN =         252.0185              TOTAL IN =           0.5000

          OUT:                                     OUT:
          ----                                     ----
        MASS STORAGE =           0.2827          MASS STORAGE =           0.0000
    CNST H MASS FLUX =           0.0000      CNST H MASS FLUX =           0.0000
      WELL MASS FLUX =         251.7357        WELL MASS FLUX =           0.5000

           TOTAL OUT =         252.0185             TOTAL OUT =           0.5000

            IN - OUT =       4.8405E-10              IN - OUT =           0.0000

 PERCENT DISCREPANCY =           0.00     PERCENT DISCREPANCY =           0.00






          TIME SUMMARY AT END OF TIME STEP         9 IN STRESS PERIOD        17
                    SECONDS     MINUTES      HOURS       DAYS        YEARS
                    -----------------------------------------------------------
   TIME STEP LENGTH 4.29341E+05  7155.7      119.26      4.9692     1.36050E-02
 STRESS PERIOD TIME 2.07679E+06  34613.      576.89      24.037     6.58095E-02
         TOTAL TIME 4.35488E+07 7.25813E+05  12097.      504.04      1.3800    
1
 -------------------------------------------------------------------------------------
 
 SOLVING FOR HEAD 

 Outer-Iteration  Inner-Iteration  Backtracking  Number of        Incoming       Outgoing  Maximum HeadChange      Maximum Head Change
     Number           Count           Flag       Backtracks       Residual       Residual           Value              Location
        1                             0             0          0.352210E-01     0.352210E-01
        1                7                                                                       -0.259815                   400           GWF-node number
        1                7                                                                       -0.246349                     3           CLN-node number
        2                             0             0          0.205493E-05     0.205493E-05
        2                1                                                                       -0.138055E-06               190           GWF-node number
        2                1                                                                       -0.357162E-06                 2           CLN-node number
     2 CALLS TO SPARSE MATRIX SOLVER PACKAGE  IN FLOW TIME STEP      10 STRESS PERIOD      17

 TOTAL OF       2OUTER ITERATIONS
  MAXIMUM CHANGE FOR EACH ITERATION:
   MAX. CHANGE        NODE  MAX. CHANGE        NODE  MAX. CHANGE        NODE  MAX. CHANGE        NODE  MAX. CHANGE        NODE
 ------------------------------------------------------------------------------------------------------------------------------------
  -0.25981    ,        400 -0.13805E-06,        190

  MAXIMUM CHANGE FOR CLN NODE AT EACH ITERATION:
   MAX. CHANGE    CLN-CELL  MAX. CHANGE    CLN-CELL  MAX. CHANGE    CLN-CELL  MAX. CHANGE    CLN-CELL  MAX. CHANGE    CLN-CELL
 ------------------------------------------------------------------------------------------------------------------------------------
  -0.24635    ,          3 -0.35716E-06,          2

 HEAD/DRAWDOWN PRINTOUT FLAG = 1     TOTAL BUDGET PRINTOUT FLAG = 1
 CELL-BY-CELL FLOW TERM FLAG = 1
 CONCENTRATION PRINTOUT FLAG = 1

 OUTPUT FLAGS FOR ALL LAYERS ARE THE SAME:
   HEAD    DRAWDOWN  HEAD  DRAWDOWN    CONC    CONC
 PRINTOUT  PRINTOUT  SAVE    SAVE    PRINTOUT  SAVE
 ---------------------------------------------------
     0         0       1       1       0       1
 UBUDSVU SAVING "         STORAGE" ON UNIT  50 AT TIME STEP     10, STRESS PERIOD     17
 UBUDSV SAVING "     CLN STORAGE" ON UNIT 144 AT TIME STEP     10, STRESS PERIOD      17
 UBUDSVU SAVING "   CONSTANT HEAD" ON UNIT  50 AT TIME STEP     10, STRESS PERIOD     17
 UBUDSVU SAVING "   FLOW JA FACE " ON UNIT  50 AT TIME STEP     10, STRESS PERIOD     17
 UBUDSVU SAVING "             CLN" ON UNIT  50 AT TIME STEP     10, STRESS PERIOD     17
 UBUDSVU SAVING "  CLN CONST HEAD" ON UNIT 144 AT TIME STEP     10, STRESS PERIOD     17
 UBUDSVU SAVING "   FLOW CLN FACE" ON UNIT 144 AT TIME STEP     10, STRESS PERIOD     17
 UBUDSVU SAVING "             GWF" ON UNIT 144 AT TIME STEP     10, STRESS PERIOD     17
 UBUDSVU SAVING "           WELLS" ON UNIT  50 AT TIME STEP     10, STRESS PERIOD     17
 UBUDSVU SAVING "           WELLS" ON UNIT 144 AT TIME STEP     10, STRESS PERIOD     17

 HEAD WILL BE SAVED ON UNIT       30 AT END OF TIME STEP       10, STRESS PERIOD       17

 DRAWDOWN WILL BE SAVED ON UNIT   31 AT END OF TIME STEP  10, STRESS PERIOD   17

 CLN HEAD WILL BE SAVED ON UNIT   77 AT END OF TIME STEP  10, STRESS PERIOD   17
1
  VOLUMETRIC BUDGET FOR ENTIRE MODEL AT END OF TIME STEP      10 IN STRESS PERIOD      17
  ---------------------------------------------------------------------------------------

     CUMULATIVE VOLUMES      L**3       RATES FOR THIS TIME STEP      L**3/T
     ------------------                 ------------------------

           IN:                                      IN:
           ---                                      ---
             STORAGE =        2549.6688               STORAGE =           4.9971
         CLN STORAGE =           0.3311           CLN STORAGE =       2.9202E-03
       CONSTANT HEAD =           0.0000         CONSTANT HEAD =           0.0000
      CLN CONST HEAD =           0.0000        CLN CONST HEAD =           0.0000
               WELLS =           0.0000                 WELLS =           0.0000

            TOTAL IN =        2549.9999              TOTAL IN =           5.0000

          OUT:                                     OUT:
          ----                                     ----
             STORAGE =           0.0000               STORAGE =           0.0000
         CLN STORAGE =           0.0000           CLN STORAGE =           0.0000
       CONSTANT HEAD =           0.0000         CONSTANT HEAD =           0.0000
      CLN CONST HEAD =           0.0000        CLN CONST HEAD =           0.0000
               WELLS =        2549.9999                 WELLS =           5.0000

           TOTAL OUT =        2549.9999             TOTAL OUT =           5.0000

            IN - OUT =       2.1102E-05              IN - OUT =      -3.5228E-08

 PERCENT DISCREPANCY =           0.00     PERCENT DISCREPANCY =          -0.00






          TIME SUMMARY AT END OF TIME STEP        10 IN STRESS PERIOD        17
                    SECONDS     MINUTES      HOURS       DAYS        YEARS
                    -----------------------------------------------------------
   TIME STEP LENGTH 5.15209E+05  8586.8      143.11      5.9631     1.63260E-02
 STRESS PERIOD TIME 2.59200E+06  43200.      720.00      30.000     8.21355E-02
         TOTAL TIME 4.40640E+07 7.34400E+05  12240.      510.00      1.3963    
1
 ------------------------------------------------------------------------------------------------------------
 
 SOLVING FOR TRANSPORT 

 ------------------------------------------------------------------------------------------------------------------------
     1 CALLS TO SPARSE MATRIX SOLVER PACKAGE IN TRANSPORT TIME STEP      10 STRESS PERIOD      17 SPECIES  1

 TOTAL OF       1OUTER ITERATIONS
  MAXIMUM CHANGE FOR EACH ITERATION:
   MAX. CHANGE        NODE  MAX. CHANGE        NODE  MAX. CHANGE        NODE  MAX. CHANGE        NODE  MAX. CHANGE        NODE
 ------------------------------------------------------------------------------------------------------------------------------------
  -0.10794E-09,        191

  MAXIMUM CHANGE FOR CLN NODE AT EACH ITERATION:
   MAX. CHANGE    CLN-CELL  MAX. CHANGE    CLN-CELL  MAX. CHANGE    CLN-CELL  MAX. CHANGE    CLN-CELL  MAX. CHANGE    CLN-CELL
 ------------------------------------------------------------------------------------------------------------------------------------
  -0.28885E-08,          1
     TRANSPORT SOLUTION COMPLETE FOR COMPONENT SPECIES NUMBER    1
     ------------------------------------------------------------
 UBUDSVU SAVING "    MASS STORAGE" ON UNIT 145 AT TIME STEP     10, STRESS PERIOD     17
 UBUDSVU SAVING "CLN MASS STORAGE" ON UNIT 145 AT TIME STEP     10, STRESS PERIOD     17
 UBUDSVU SAVING "CNST H MASS FLUX" ON UNIT 145 AT TIME STEP     10, STRESS PERIOD     17
 UBUDSVU SAVING "  WELL MASS FLUX" ON UNIT 145 AT TIME STEP     10, STRESS PERIOD     17

 TRANSPORT SOLUTION COMPLETE FOR ALL SPECIES, SORTING OUTPUT FOR CONCENTRATIONS AND MASS BALANCE
 ----------------------------------------------------------------------------------------------------
     TRANSPORT OUTPUT FOR COMPONENT SPECIES NUMBER    1
     ------------------------------------------------------------

 CONC WILL BE SAVED ON UNIT  132 AT END OF TIME STEP       10, STRESS PERIOD       17

 CLN CONC WILL BE SAVED ON UNIT  188 AT END OF TIME STEP  10, STRESS PERIOD   17
1
  VOLUMETRIC BUDGET FOR ENTIRE MODEL AT END OF TIME STEP      10 IN STRESS PERIOD      17
  ---------------------------------------------------------------------------------------

     CUMULATIVE VOLUMES      L**3       RATES FOR THIS TIME STEP      L**3/T
     ------------------                 ------------------------

           IN:                                      IN:
           ---                                      ---
        MASS STORAGE =         255.0000          MASS STORAGE =           0.5000
    CNST H MASS FLUX =           0.0000      CNST H MASS FLUX =           0.0000
      WELL MASS FLUX =           0.0000        WELL MASS FLUX =           0.0000

            TOTAL IN =         255.0000              TOTAL IN =           0.5000

          OUT:                                     OUT:
          ----                                     ----
        MASS STORAGE =           0.2827          MASS STORAGE =       1.9932E-10
    CNST H MASS FLUX =           0.0000      CNST H MASS FLUX =           0.0000
      WELL MASS FLUX =         254.7173        WELL MASS FLUX =           0.5000

           TOTAL OUT =         255.0000             TOTAL OUT =           0.5000

            IN - OUT =       3.6886E-10              IN - OUT =      -1.9932E-10

 PERCENT DISCREPANCY =           0.00     PERCENT DISCREPANCY =          -0.00






          TIME SUMMARY AT END OF TIME STEP        10 IN STRESS PERIOD        17
                    SECONDS     MINUTES      HOURS       DAYS        YEARS
                    -----------------------------------------------------------
   TIME STEP LENGTH 5.15209E+05  8586.8      143.11      5.9631     1.63260E-02
 STRESS PERIOD TIME 2.59200E+06  43200.      720.00      30.000     8.21355E-02
         TOTAL TIME 4.40640E+07 7.34400E+05  12240.      510.00      1.3963    
1
1
                            STRESS PERIOD NO.   18, LENGTH =   30.00000    
                            -----------------------------------------------

                              NUMBER OF TIME STEPS =        10

                               MULTIPLIER FOR DELT =     1.200

                            INITIAL TIME STEP SIZE =   1.155682    

 WEL -- WELL PACKAGE, VERSION 7, 5/2/2005 INPUT READ FROM UNIT   12

 WELL NO.  CLN-NODE       STRESS FACTOR         C01             
 ---------------------------------------------------------------
        1            3      -5.000           0.000           0.000    

      1 WELL 
 -------------------------------------------------------------------------------------
 
 SOLVING FOR HEAD 

 Outer-Iteration  Inner-Iteration  Backtracking  Number of        Incoming       Outgoing  Maximum HeadChange      Maximum Head Change
     Number           Count           Flag       Backtracks       Residual       Residual           Value              Location
        1                             0             0          0.351357E-01     0.351357E-01
        1                5                                                                       -0.503309E-01               400           GWF-node number
        1                5                                                                       -0.477253E-01                 2           CLN-node number
        2                             0             0          0.307664E-08     0.307664E-08
        2                1                                                                        0.293098E-07               190           GWF-node number
        2                1                                                                        0.828734E-07                 1           CLN-node number


     2 CALLS TO SPARSE MATRIX SOLVER PACKAGE  IN FLOW TIME STEP       1 STRESS PERIOD      18

 TOTAL OF       2OUTER ITERATIONS
  MAXIMUM CHANGE FOR EACH ITERATION:
   MAX. CHANGE        NODE  MAX. CHANGE        NODE  MAX. CHANGE        NODE  MAX. CHANGE        NODE  MAX. CHANGE        NODE
 ------------------------------------------------------------------------------------------------------------------------------------
  -0.50331E-01,        400  0.29310E-07,        190

  MAXIMUM CHANGE FOR CLN NODE AT EACH ITERATION:
   MAX. CHANGE    CLN-CELL  MAX. CHANGE    CLN-CELL  MAX. CHANGE    CLN-CELL  MAX. CHANGE    CLN-CELL  MAX. CHANGE    CLN-CELL
 ------------------------------------------------------------------------------------------------------------------------------------
  -0.47725E-01,          2  0.82873E-07,          1

 HEAD/DRAWDOWN PRINTOUT FLAG = 1     TOTAL BUDGET PRINTOUT FLAG = 1
 CELL-BY-CELL FLOW TERM FLAG = 1
 CONCENTRATION PRINTOUT FLAG = 1

 OUTPUT FLAGS FOR ALL LAYERS ARE THE SAME:
   HEAD    DRAWDOWN  HEAD  DRAWDOWN    CONC    CONC
 PRINTOUT  PRINTOUT  SAVE    SAVE    PRINTOUT  SAVE
 ---------------------------------------------------
     0         0       1       1       0       1
 UBUDSVU SAVING "         STORAGE" ON UNIT  50 AT TIME STEP      1, STRESS PERIOD     18
 UBUDSV SAVING "     CLN STORAGE" ON UNIT 144 AT TIME STEP      1, STRESS PERIOD      18
 UBUDSVU SAVING "   CONSTANT HEAD" ON UNIT  50 AT TIME STEP      1, STRESS PERIOD     18
 UBUDSVU SAVING "   FLOW JA FACE " ON UNIT  50 AT TIME STEP      1, STRESS PERIOD     18
 UBUDSVU SAVING "             CLN" ON UNIT  50 AT TIME STEP      1, STRESS PERIOD     18
 UBUDSVU SAVING "  CLN CONST HEAD" ON UNIT 144 AT TIME STEP      1, STRESS PERIOD     18
 UBUDSVU SAVING "   FLOW CLN FACE" ON UNIT 144 AT TIME STEP      1, STRESS PERIOD     18
 UBUDSVU SAVING "             GWF" ON UNIT 144 AT TIME STEP      1, STRESS PERIOD     18
 UBUDSVU SAVING "           WELLS" ON UNIT  50 AT TIME STEP      1, STRESS PERIOD     18
 UBUDSVU SAVING "           WELLS" ON UNIT 144 AT TIME STEP      1, STRESS PERIOD     18

 HEAD WILL BE SAVED ON UNIT       30 AT END OF TIME STEP        1, STRESS PERIOD       18

 DRAWDOWN WILL BE SAVED ON UNIT   31 AT END OF TIME STEP   1, STRESS PERIOD   18

 CLN HEAD WILL BE SAVED ON UNIT   77 AT END OF TIME STEP   1, STRESS PERIOD   18
1
  VOLUMETRIC BUDGET FOR ENTIRE MODEL AT END OF TIME STEP       1 IN STRESS PERIOD      18
  ---------------------------------------------------------------------------------------

     CUMULATIVE VOLUMES      L**3       RATES FOR THIS TIME STEP      L**3/T
     ------------------                 ------------------------

           IN:                                      IN:
           ---                                      ---
             STORAGE =        2555.4439               STORAGE =           4.9971
         CLN STORAGE =           0.3345           CLN STORAGE =       2.9191E-03
       CONSTANT HEAD =           0.0000         CONSTANT HEAD =           0.0000
      CLN CONST HEAD =           0.0000        CLN CONST HEAD =           0.0000
               WELLS =           0.0000                 WELLS =           0.0000

            TOTAL IN =        2555.7783              TOTAL IN =           5.0000

          OUT:                                     OUT:
          ----                                     ----
             STORAGE =           0.0000               STORAGE =           0.0000
         CLN STORAGE =           0.0000           CLN STORAGE =           0.0000
       CONSTANT HEAD =           0.0000         CONSTANT HEAD =           0.0000
      CLN CONST HEAD =           0.0000        CLN CONST HEAD =           0.0000
               WELLS =        2555.7783                 WELLS =           5.0000

           TOTAL OUT =        2555.7783             TOTAL OUT =           5.0000

            IN - OUT =       2.1122E-05              IN - OUT =       1.7524E-08

 PERCENT DISCREPANCY =           0.00     PERCENT DISCREPANCY =           0.00






          TIME SUMMARY AT END OF TIME STEP         1 IN STRESS PERIOD        18
                    SECONDS     MINUTES      HOURS       DAYS        YEARS
                    -----------------------------------------------------------
   TIME STEP LENGTH  99851.      1664.2      27.736      1.1557     3.16409E-03
 STRESS PERIOD TIME  99851.      1664.2      27.736      1.1557     3.16409E-03
         TOTAL TIME 4.41638E+07 7.36064E+05  12268.      511.16      1.3995    
1
 ------------------------------------------------------------------------------------------------------------
 
 SOLVING FOR TRANSPORT 

 ------------------------------------------------------------------------------------------------------------------------
     1 CALLS TO SPARSE MATRIX SOLVER PACKAGE IN TRANSPORT TIME STEP       1 STRESS PERIOD      18 SPECIES  1

 TOTAL OF       1OUTER ITERATIONS
  MAXIMUM CHANGE FOR EACH ITERATION:
   MAX. CHANGE        NODE  MAX. CHANGE        NODE  MAX. CHANGE        NODE  MAX. CHANGE        NODE  MAX. CHANGE        NODE
 ------------------------------------------------------------------------------------------------------------------------------------
   0.63700E-12,        210

  MAXIMUM CHANGE FOR CLN NODE AT EACH ITERATION:
   MAX. CHANGE    CLN-CELL  MAX. CHANGE    CLN-CELL  MAX. CHANGE    CLN-CELL  MAX. CHANGE    CLN-CELL  MAX. CHANGE    CLN-CELL
 ------------------------------------------------------------------------------------------------------------------------------------
  -0.21547E-08,          2
     TRANSPORT SOLUTION COMPLETE FOR COMPONENT SPECIES NUMBER    1
     ------------------------------------------------------------
 UBUDSVU SAVING "    MASS STORAGE" ON UNIT 145 AT TIME STEP      1, STRESS PERIOD     18
 UBUDSVU SAVING "CLN MASS STORAGE" ON UNIT 145 AT TIME STEP      1, STRESS PERIOD     18
 UBUDSVU SAVING "CNST H MASS FLUX" ON UNIT 145 AT TIME STEP      1, STRESS PERIOD     18
 UBUDSVU SAVING "  WELL MASS FLUX" ON UNIT 145 AT TIME STEP      1, STRESS PERIOD     18

 TRANSPORT SOLUTION COMPLETE FOR ALL SPECIES, SORTING OUTPUT FOR CONCENTRATIONS AND MASS BALANCE
 ----------------------------------------------------------------------------------------------------
     TRANSPORT OUTPUT FOR COMPONENT SPECIES NUMBER    1
     ------------------------------------------------------------

 CONC WILL BE SAVED ON UNIT  132 AT END OF TIME STEP        1, STRESS PERIOD       18

 CLN CONC WILL BE SAVED ON UNIT  188 AT END OF TIME STEP   1, STRESS PERIOD   18
1
  VOLUMETRIC BUDGET FOR ENTIRE MODEL AT END OF TIME STEP       1 IN STRESS PERIOD      18
  ---------------------------------------------------------------------------------------

     CUMULATIVE VOLUMES      L**3       RATES FOR THIS TIME STEP      L**3/T
     ------------------                 ------------------------

           IN:                                      IN:
           ---                                      ---
        MASS STORAGE =         255.5778          MASS STORAGE =           0.5000
    CNST H MASS FLUX =           0.0000      CNST H MASS FLUX =           0.0000
      WELL MASS FLUX =           0.0000        WELL MASS FLUX =           0.0000

            TOTAL IN =         255.5778              TOTAL IN =           0.5000

          OUT:                                     OUT:
          ----                                     ----
        MASS STORAGE =           0.2827          MASS STORAGE =           0.0000
    CNST H MASS FLUX =           0.0000      CNST H MASS FLUX =           0.0000
      WELL MASS FLUX =         255.2951        WELL MASS FLUX =           0.5000

           TOTAL OUT =         255.5778             TOTAL OUT =           0.5000

            IN - OUT =       3.6889E-10              IN - OUT =           0.0000

 PERCENT DISCREPANCY =           0.00     PERCENT DISCREPANCY =           0.00






          TIME SUMMARY AT END OF TIME STEP         1 IN STRESS PERIOD        18
                    SECONDS     MINUTES      HOURS       DAYS        YEARS
                    -----------------------------------------------------------
   TIME STEP LENGTH  99851.      1664.2      27.736      1.1557     3.16409E-03
 STRESS PERIOD TIME  99851.      1664.2      27.736      1.1557     3.16409E-03
         TOTAL TIME 4.41638E+07 7.36064E+05  12268.      511.16      1.3995    
1
 -------------------------------------------------------------------------------------
 
 SOLVING FOR HEAD 

 Outer-Iteration  Inner-Iteration  Backtracking  Number of        Incoming       Outgoing  Maximum HeadChange      Maximum Head Change
     Number           Count           Flag       Backtracks       Residual       Residual           Value              Location
        1                             0             0          0.351193E-01     0.351193E-01
        1                5                                                                       -0.603641E-01               400           GWF-node number
        1                5                                                                       -0.572435E-01                 2           CLN-node number
        2                             0             0          0.646828E-08     0.646828E-08
        2                1                                                                        0.137237E-07               190           GWF-node number
        2                1                                                                        0.414078E-07                 1           CLN-node number
     2 CALLS TO SPARSE MATRIX SOLVER PACKAGE  IN FLOW TIME STEP       2 STRESS PERIOD      18

 TOTAL OF       2OUTER ITERATIONS
  MAXIMUM CHANGE FOR EACH ITERATION:
   MAX. CHANGE        NODE  MAX. CHANGE        NODE  MAX. CHANGE        NODE  MAX. CHANGE        NODE  MAX. CHANGE        NODE
 ------------------------------------------------------------------------------------------------------------------------------------
  -0.60364E-01,        400  0.13724E-07,        190

  MAXIMUM CHANGE FOR CLN NODE AT EACH ITERATION:
   MAX. CHANGE    CLN-CELL  MAX. CHANGE    CLN-CELL  MAX. CHANGE    CLN-CELL  MAX. CHANGE    CLN-CELL  MAX. CHANGE    CLN-CELL
 ------------------------------------------------------------------------------------------------------------------------------------
  -0.57244E-01,          2  0.41408E-07,          1

 HEAD/DRAWDOWN PRINTOUT FLAG = 1     TOTAL BUDGET PRINTOUT FLAG = 1
 CELL-BY-CELL FLOW TERM FLAG = 1
 CONCENTRATION PRINTOUT FLAG = 1

 OUTPUT FLAGS FOR ALL LAYERS ARE THE SAME:
   HEAD    DRAWDOWN  HEAD  DRAWDOWN    CONC    CONC
 PRINTOUT  PRINTOUT  SAVE    SAVE    PRINTOUT  SAVE
 ---------------------------------------------------
     0         0       1       1       0       1
 UBUDSVU SAVING "         STORAGE" ON UNIT  50 AT TIME STEP      2, STRESS PERIOD     18
 UBUDSV SAVING "     CLN STORAGE" ON UNIT 144 AT TIME STEP      2, STRESS PERIOD      18
 UBUDSVU SAVING "   CONSTANT HEAD" ON UNIT  50 AT TIME STEP      2, STRESS PERIOD     18
 UBUDSVU SAVING "   FLOW JA FACE " ON UNIT  50 AT TIME STEP      2, STRESS PERIOD     18
 UBUDSVU SAVING "             CLN" ON UNIT  50 AT TIME STEP      2, STRESS PERIOD     18
 UBUDSVU SAVING "  CLN CONST HEAD" ON UNIT 144 AT TIME STEP      2, STRESS PERIOD     18
 UBUDSVU SAVING "   FLOW CLN FACE" ON UNIT 144 AT TIME STEP      2, STRESS PERIOD     18
 UBUDSVU SAVING "             GWF" ON UNIT 144 AT TIME STEP      2, STRESS PERIOD     18
 UBUDSVU SAVING "           WELLS" ON UNIT  50 AT TIME STEP      2, STRESS PERIOD     18
 UBUDSVU SAVING "           WELLS" ON UNIT 144 AT TIME STEP      2, STRESS PERIOD     18

 HEAD WILL BE SAVED ON UNIT       30 AT END OF TIME STEP        2, STRESS PERIOD       18

 DRAWDOWN WILL BE SAVED ON UNIT   31 AT END OF TIME STEP   2, STRESS PERIOD   18

 CLN HEAD WILL BE SAVED ON UNIT   77 AT END OF TIME STEP   2, STRESS PERIOD   18
1
  VOLUMETRIC BUDGET FOR ENTIRE MODEL AT END OF TIME STEP       2 IN STRESS PERIOD      18
  ---------------------------------------------------------------------------------------

     CUMULATIVE VOLUMES      L**3       RATES FOR THIS TIME STEP      L**3/T
     ------------------                 ------------------------

           IN:                                      IN:
           ---                                      ---
             STORAGE =        2562.3739               STORAGE =           4.9971
         CLN STORAGE =           0.3385           CLN STORAGE =       2.9177E-03
       CONSTANT HEAD =           0.0000         CONSTANT HEAD =           0.0000
      CLN CONST HEAD =           0.0000        CLN CONST HEAD =           0.0000
               WELLS =           0.0000                 WELLS =           0.0000

            TOTAL IN =        2562.7124              TOTAL IN =           5.0000

          OUT:                                     OUT:
          ----                                     ----
             STORAGE =           0.0000               STORAGE =           0.0000
         CLN STORAGE =           0.0000           CLN STORAGE =           0.0000
       CONSTANT HEAD =           0.0000         CONSTANT HEAD =           0.0000
      CLN CONST HEAD =           0.0000        CLN CONST HEAD =           0.0000
               WELLS =        2562.7124                 WELLS =           5.0000

           TOTAL OUT =        2562.7124             TOTAL OUT =           5.0000

            IN - OUT =       2.1156E-05              IN - OUT =       2.4419E-08

 PERCENT DISCREPANCY =           0.00     PERCENT DISCREPANCY =           0.00






          TIME SUMMARY AT END OF TIME STEP         2 IN STRESS PERIOD        18
                    SECONDS     MINUTES      HOURS       DAYS        YEARS
                    -----------------------------------------------------------
   TIME STEP LENGTH 1.19821E+05  1997.0      33.284      1.3868     3.79690E-03
 STRESS PERIOD TIME 2.19672E+05  3661.2      61.020      2.5425     6.96099E-03
         TOTAL TIME 4.42837E+07 7.38061E+05  12301.      512.54      1.4033    
1
 ------------------------------------------------------------------------------------------------------------
 
 SOLVING FOR TRANSPORT 

 ------------------------------------------------------------------------------------------------------------------------
     1 CALLS TO SPARSE MATRIX SOLVER PACKAGE IN TRANSPORT TIME STEP       2 STRESS PERIOD      18 SPECIES  1

 TOTAL OF       1OUTER ITERATIONS
  MAXIMUM CHANGE FOR EACH ITERATION:
   MAX. CHANGE        NODE  MAX. CHANGE        NODE  MAX. CHANGE        NODE  MAX. CHANGE        NODE  MAX. CHANGE        NODE
 ------------------------------------------------------------------------------------------------------------------------------------
  -0.13921E-11,        191

  MAXIMUM CHANGE FOR CLN NODE AT EACH ITERATION:
   MAX. CHANGE    CLN-CELL  MAX. CHANGE    CLN-CELL  MAX. CHANGE    CLN-CELL  MAX. CHANGE    CLN-CELL  MAX. CHANGE    CLN-CELL
 ------------------------------------------------------------------------------------------------------------------------------------
   0.11243E-08,          2
     TRANSPORT SOLUTION COMPLETE FOR COMPONENT SPECIES NUMBER    1
     ------------------------------------------------------------
 UBUDSVU SAVING "    MASS STORAGE" ON UNIT 145 AT TIME STEP      2, STRESS PERIOD     18
 UBUDSVU SAVING "CLN MASS STORAGE" ON UNIT 145 AT TIME STEP      2, STRESS PERIOD     18
 UBUDSVU SAVING "CNST H MASS FLUX" ON UNIT 145 AT TIME STEP      2, STRESS PERIOD     18
 UBUDSVU SAVING "  WELL MASS FLUX" ON UNIT 145 AT TIME STEP      2, STRESS PERIOD     18

 TRANSPORT SOLUTION COMPLETE FOR ALL SPECIES, SORTING OUTPUT FOR CONCENTRATIONS AND MASS BALANCE
 ----------------------------------------------------------------------------------------------------
     TRANSPORT OUTPUT FOR COMPONENT SPECIES NUMBER    1
     ------------------------------------------------------------

 CONC WILL BE SAVED ON UNIT  132 AT END OF TIME STEP        2, STRESS PERIOD       18

 CLN CONC WILL BE SAVED ON UNIT  188 AT END OF TIME STEP   2, STRESS PERIOD   18
1
  VOLUMETRIC BUDGET FOR ENTIRE MODEL AT END OF TIME STEP       2 IN STRESS PERIOD      18
  ---------------------------------------------------------------------------------------

     CUMULATIVE VOLUMES      L**3       RATES FOR THIS TIME STEP      L**3/T
     ------------------                 ------------------------

           IN:                                      IN:
           ---                                      ---
        MASS STORAGE =         256.2713          MASS STORAGE =           0.5000
    CNST H MASS FLUX =           0.0000      CNST H MASS FLUX =           0.0000
      WELL MASS FLUX =           0.0000        WELL MASS FLUX =           0.0000

            TOTAL IN =         256.2713              TOTAL IN =           0.5000

          OUT:                                     OUT:
          ----                                     ----
        MASS STORAGE =           0.2827          MASS STORAGE =       2.9504E-10
    CNST H MASS FLUX =           0.0000      CNST H MASS FLUX =           0.0000
      WELL MASS FLUX =         255.9885        WELL MASS FLUX =           0.5000

           TOTAL OUT =         256.2713             TOTAL OUT =           0.5000

            IN - OUT =       3.6886E-10              IN - OUT =      -2.9504E-10

 PERCENT DISCREPANCY =           0.00     PERCENT DISCREPANCY =          -0.00






          TIME SUMMARY AT END OF TIME STEP         2 IN STRESS PERIOD        18
                    SECONDS     MINUTES      HOURS       DAYS        YEARS
                    -----------------------------------------------------------
   TIME STEP LENGTH 1.19821E+05  1997.0      33.284      1.3868     3.79690E-03
 STRESS PERIOD TIME 2.19672E+05  3661.2      61.020      2.5425     6.96099E-03
         TOTAL TIME 4.42837E+07 7.38061E+05  12301.      512.54      1.4033    
1
 -------------------------------------------------------------------------------------
 
 SOLVING FOR HEAD 

 Outer-Iteration  Inner-Iteration  Backtracking  Number of        Incoming       Outgoing  Maximum HeadChange      Maximum Head Change
     Number           Count           Flag       Backtracks       Residual       Residual           Value              Location
        1                             0             0          0.350996E-01     0.350996E-01
        1                5                                                                       -0.723896E-01               400           GWF-node number
        1                5                                                                       -0.686534E-01                 2           CLN-node number
        2                             0             0          0.135971E-07     0.135971E-07
        2                1                                                                        0.358672E-07               190           GWF-node number
        2                1                                                                        0.109926E-06                 1           CLN-node number
     2 CALLS TO SPARSE MATRIX SOLVER PACKAGE  IN FLOW TIME STEP       3 STRESS PERIOD      18

 TOTAL OF       2OUTER ITERATIONS
  MAXIMUM CHANGE FOR EACH ITERATION:
   MAX. CHANGE        NODE  MAX. CHANGE        NODE  MAX. CHANGE        NODE  MAX. CHANGE        NODE  MAX. CHANGE        NODE
 ------------------------------------------------------------------------------------------------------------------------------------
  -0.72390E-01,        400  0.35867E-07,        190

  MAXIMUM CHANGE FOR CLN NODE AT EACH ITERATION:
   MAX. CHANGE    CLN-CELL  MAX. CHANGE    CLN-CELL  MAX. CHANGE    CLN-CELL  MAX. CHANGE    CLN-CELL  MAX. CHANGE    CLN-CELL
 ------------------------------------------------------------------------------------------------------------------------------------
  -0.68653E-01,          2  0.10993E-06,          1

 HEAD/DRAWDOWN PRINTOUT FLAG = 1     TOTAL BUDGET PRINTOUT FLAG = 1
 CELL-BY-CELL FLOW TERM FLAG = 1
 CONCENTRATION PRINTOUT FLAG = 1

 OUTPUT FLAGS FOR ALL LAYERS ARE THE SAME:
   HEAD    DRAWDOWN  HEAD  DRAWDOWN    CONC    CONC
 PRINTOUT  PRINTOUT  SAVE    SAVE    PRINTOUT  SAVE
 ---------------------------------------------------
     0         0       1       1       0       1
 UBUDSVU SAVING "         STORAGE" ON UNIT  50 AT TIME STEP      3, STRESS PERIOD     18
 UBUDSV SAVING "     CLN STORAGE" ON UNIT 144 AT TIME STEP      3, STRESS PERIOD      18
 UBUDSVU SAVING "   CONSTANT HEAD" ON UNIT  50 AT TIME STEP      3, STRESS PERIOD     18
 UBUDSVU SAVING "   FLOW JA FACE " ON UNIT  50 AT TIME STEP      3, STRESS PERIOD     18
 UBUDSVU SAVING "             CLN" ON UNIT  50 AT TIME STEP      3, STRESS PERIOD     18
 UBUDSVU SAVING "  CLN CONST HEAD" ON UNIT 144 AT TIME STEP      3, STRESS PERIOD     18
 UBUDSVU SAVING "   FLOW CLN FACE" ON UNIT 144 AT TIME STEP      3, STRESS PERIOD     18
 UBUDSVU SAVING "             GWF" ON UNIT 144 AT TIME STEP      3, STRESS PERIOD     18
 UBUDSVU SAVING "           WELLS" ON UNIT  50 AT TIME STEP      3, STRESS PERIOD     18
 UBUDSVU SAVING "           WELLS" ON UNIT 144 AT TIME STEP      3, STRESS PERIOD     18

 HEAD WILL BE SAVED ON UNIT       30 AT END OF TIME STEP        3, STRESS PERIOD       18

 DRAWDOWN WILL BE SAVED ON UNIT   31 AT END OF TIME STEP   3, STRESS PERIOD   18

 CLN HEAD WILL BE SAVED ON UNIT   77 AT END OF TIME STEP   3, STRESS PERIOD   18
1
  VOLUMETRIC BUDGET FOR ENTIRE MODEL AT END OF TIME STEP       3 IN STRESS PERIOD      18
  ---------------------------------------------------------------------------------------

     CUMULATIVE VOLUMES      L**3       RATES FOR THIS TIME STEP      L**3/T
     ------------------                 ------------------------

           IN:                                      IN:
           ---                                      ---
             STORAGE =        2570.6900               STORAGE =           4.9971
         CLN STORAGE =           0.3434           CLN STORAGE =       2.9160E-03
       CONSTANT HEAD =           0.0000         CONSTANT HEAD =           0.0000
      CLN CONST HEAD =           0.0000        CLN CONST HEAD =           0.0000
               WELLS =           0.0000                 WELLS =           0.0000

            TOTAL IN =        2571.0333              TOTAL IN =           5.0000

          OUT:                                     OUT:
          ----                                     ----
             STORAGE =           0.0000               STORAGE =           0.0000
         CLN STORAGE =           0.0000           CLN STORAGE =           0.0000
       CONSTANT HEAD =           0.0000         CONSTANT HEAD =           0.0000
      CLN CONST HEAD =           0.0000        CLN CONST HEAD =           0.0000
               WELLS =        2571.0333                 WELLS =           5.0000

           TOTAL OUT =        2571.0333             TOTAL OUT =           5.0000

            IN - OUT =       2.1214E-05              IN - OUT =       3.4967E-08

 PERCENT DISCREPANCY =           0.00     PERCENT DISCREPANCY =           0.00






          TIME SUMMARY AT END OF TIME STEP         3 IN STRESS PERIOD        18
                    SECONDS     MINUTES      HOURS       DAYS        YEARS
                    -----------------------------------------------------------
   TIME STEP LENGTH 1.43785E+05  2396.4      39.940      1.6642     4.55628E-03
 STRESS PERIOD TIME 3.63458E+05  6057.6      100.96      4.2067     1.15173E-02
         TOTAL TIME 4.44275E+07 7.40458E+05  12341.      514.21      1.4078    
1
 ------------------------------------------------------------------------------------------------------------
 
 SOLVING FOR TRANSPORT 

 ------------------------------------------------------------------------------------------------------------------------
     1 CALLS TO SPARSE MATRIX SOLVER PACKAGE IN TRANSPORT TIME STEP       3 STRESS PERIOD      18 SPECIES  1

 TOTAL OF       1OUTER ITERATIONS
  MAXIMUM CHANGE FOR EACH ITERATION:
   MAX. CHANGE        NODE  MAX. CHANGE        NODE  MAX. CHANGE        NODE  MAX. CHANGE        NODE  MAX. CHANGE        NODE
 ------------------------------------------------------------------------------------------------------------------------------------
   0.27657E-11,        191

  MAXIMUM CHANGE FOR CLN NODE AT EACH ITERATION:
   MAX. CHANGE    CLN-CELL  MAX. CHANGE    CLN-CELL  MAX. CHANGE    CLN-CELL  MAX. CHANGE    CLN-CELL  MAX. CHANGE    CLN-CELL
 ------------------------------------------------------------------------------------------------------------------------------------
   0.47405E-09,          1
     TRANSPORT SOLUTION COMPLETE FOR COMPONENT SPECIES NUMBER    1
     ------------------------------------------------------------
 UBUDSVU SAVING "    MASS STORAGE" ON UNIT 145 AT TIME STEP      3, STRESS PERIOD     18
 UBUDSVU SAVING "CLN MASS STORAGE" ON UNIT 145 AT TIME STEP      3, STRESS PERIOD     18
 UBUDSVU SAVING "CNST H MASS FLUX" ON UNIT 145 AT TIME STEP      3, STRESS PERIOD     18
 UBUDSVU SAVING "  WELL MASS FLUX" ON UNIT 145 AT TIME STEP      3, STRESS PERIOD     18

 TRANSPORT SOLUTION COMPLETE FOR ALL SPECIES, SORTING OUTPUT FOR CONCENTRATIONS AND MASS BALANCE
 ----------------------------------------------------------------------------------------------------
     TRANSPORT OUTPUT FOR COMPONENT SPECIES NUMBER    1
     ------------------------------------------------------------

 CONC WILL BE SAVED ON UNIT  132 AT END OF TIME STEP        3, STRESS PERIOD       18

 CLN CONC WILL BE SAVED ON UNIT  188 AT END OF TIME STEP   3, STRESS PERIOD   18
1
  VOLUMETRIC BUDGET FOR ENTIRE MODEL AT END OF TIME STEP       3 IN STRESS PERIOD      18
  ---------------------------------------------------------------------------------------

     CUMULATIVE VOLUMES      L**3       RATES FOR THIS TIME STEP      L**3/T
     ------------------                 ------------------------

           IN:                                      IN:
           ---                                      ---
        MASS STORAGE =         257.1033          MASS STORAGE =           0.5000
    CNST H MASS FLUX =           0.0000      CNST H MASS FLUX =           0.0000
      WELL MASS FLUX =           0.0000        WELL MASS FLUX =           0.0000

            TOTAL IN =         257.1033              TOTAL IN =           0.5000

          OUT:                                     OUT:
          ----                                     ----
        MASS STORAGE =           0.2827          MASS STORAGE =       1.0246E-13
    CNST H MASS FLUX =           0.0000      CNST H MASS FLUX =           0.0000
      WELL MASS FLUX =         256.8206        WELL MASS FLUX =           0.5000

           TOTAL OUT =         257.1033             TOTAL OUT =           0.5000

            IN - OUT =       3.6897E-10              IN - OUT =      -1.0247E-13

 PERCENT DISCREPANCY =           0.00     PERCENT DISCREPANCY =          -0.00






          TIME SUMMARY AT END OF TIME STEP         3 IN STRESS PERIOD        18
                    SECONDS     MINUTES      HOURS       DAYS        YEARS
                    -----------------------------------------------------------
   TIME STEP LENGTH 1.43785E+05  2396.4      39.940      1.6642     4.55628E-03
 STRESS PERIOD TIME 3.63458E+05  6057.6      100.96      4.2067     1.15173E-02
         TOTAL TIME 4.44275E+07 7.40458E+05  12341.      514.21      1.4078    
1
 -------------------------------------------------------------------------------------
 
 SOLVING FOR HEAD 

 Outer-Iteration  Inner-Iteration  Backtracking  Number of        Incoming       Outgoing  Maximum HeadChange      Maximum Head Change
     Number           Count           Flag       Backtracks       Residual       Residual           Value              Location
        1                             0             0          0.350762E-01     0.350762E-01
        1                5                                                                       -0.867994E-01               400           GWF-node number
        1                5                                                                       -0.823282E-01                 3           CLN-node number
        2                             0             0          0.286051E-07     0.286051E-07
        2                1                                                                       -0.659336E-07               190           GWF-node number
        2                1                                                                       -0.125001E-06                 3           CLN-node number
     2 CALLS TO SPARSE MATRIX SOLVER PACKAGE  IN FLOW TIME STEP       4 STRESS PERIOD      18

 TOTAL OF       2OUTER ITERATIONS
  MAXIMUM CHANGE FOR EACH ITERATION:
   MAX. CHANGE        NODE  MAX. CHANGE        NODE  MAX. CHANGE        NODE  MAX. CHANGE        NODE  MAX. CHANGE        NODE
 ------------------------------------------------------------------------------------------------------------------------------------
  -0.86799E-01,        400 -0.65934E-07,        190

  MAXIMUM CHANGE FOR CLN NODE AT EACH ITERATION:
   MAX. CHANGE    CLN-CELL  MAX. CHANGE    CLN-CELL  MAX. CHANGE    CLN-CELL  MAX. CHANGE    CLN-CELL  MAX. CHANGE    CLN-CELL
 ------------------------------------------------------------------------------------------------------------------------------------
  -0.82328E-01,          3 -0.12500E-06,          3

 HEAD/DRAWDOWN PRINTOUT FLAG = 1     TOTAL BUDGET PRINTOUT FLAG = 1
 CELL-BY-CELL FLOW TERM FLAG = 1
 CONCENTRATION PRINTOUT FLAG = 1

 OUTPUT FLAGS FOR ALL LAYERS ARE THE SAME:
   HEAD    DRAWDOWN  HEAD  DRAWDOWN    CONC    CONC
 PRINTOUT  PRINTOUT  SAVE    SAVE    PRINTOUT  SAVE
 ---------------------------------------------------
     0         0       1       1       0       1
 UBUDSVU SAVING "         STORAGE" ON UNIT  50 AT TIME STEP      4, STRESS PERIOD     18
 UBUDSV SAVING "     CLN STORAGE" ON UNIT 144 AT TIME STEP      4, STRESS PERIOD      18
 UBUDSVU SAVING "   CONSTANT HEAD" ON UNIT  50 AT TIME STEP      4, STRESS PERIOD     18
 UBUDSVU SAVING "   FLOW JA FACE " ON UNIT  50 AT TIME STEP      4, STRESS PERIOD     18
 UBUDSVU SAVING "             CLN" ON UNIT  50 AT TIME STEP      4, STRESS PERIOD     18
 UBUDSVU SAVING "  CLN CONST HEAD" ON UNIT 144 AT TIME STEP      4, STRESS PERIOD     18
 UBUDSVU SAVING "   FLOW CLN FACE" ON UNIT 144 AT TIME STEP      4, STRESS PERIOD     18
 UBUDSVU SAVING "             GWF" ON UNIT 144 AT TIME STEP      4, STRESS PERIOD     18
 UBUDSVU SAVING "           WELLS" ON UNIT  50 AT TIME STEP      4, STRESS PERIOD     18
 UBUDSVU SAVING "           WELLS" ON UNIT 144 AT TIME STEP      4, STRESS PERIOD     18

 HEAD WILL BE SAVED ON UNIT       30 AT END OF TIME STEP        4, STRESS PERIOD       18

 DRAWDOWN WILL BE SAVED ON UNIT   31 AT END OF TIME STEP   4, STRESS PERIOD   18

 CLN HEAD WILL BE SAVED ON UNIT   77 AT END OF TIME STEP   4, STRESS PERIOD   18
1
  VOLUMETRIC BUDGET FOR ENTIRE MODEL AT END OF TIME STEP       4 IN STRESS PERIOD      18
  ---------------------------------------------------------------------------------------

     CUMULATIVE VOLUMES      L**3       RATES FOR THIS TIME STEP      L**3/T
     ------------------                 ------------------------

           IN:                                      IN:
           ---                                      ---
             STORAGE =        2580.6692               STORAGE =           4.9971
         CLN STORAGE =           0.3492           CLN STORAGE =       2.9141E-03
       CONSTANT HEAD =           0.0000         CONSTANT HEAD =           0.0000
      CLN CONST HEAD =           0.0000        CLN CONST HEAD =           0.0000
               WELLS =           0.0000                 WELLS =           0.0000

            TOTAL IN =        2581.0184              TOTAL IN =           5.0000

          OUT:                                     OUT:
          ----                                     ----
             STORAGE =           0.0000               STORAGE =           0.0000
         CLN STORAGE =           0.0000           CLN STORAGE =           0.0000
       CONSTANT HEAD =           0.0000         CONSTANT HEAD =           0.0000
      CLN CONST HEAD =           0.0000        CLN CONST HEAD =           0.0000
               WELLS =        2581.0184                 WELLS =           5.0000

           TOTAL OUT =        2581.0184             TOTAL OUT =           5.0000

            IN - OUT =       2.1322E-05              IN - OUT =       5.3976E-08

 PERCENT DISCREPANCY =           0.00     PERCENT DISCREPANCY =           0.00






          TIME SUMMARY AT END OF TIME STEP         4 IN STRESS PERIOD        18
                    SECONDS     MINUTES      HOURS       DAYS        YEARS
                    -----------------------------------------------------------
   TIME STEP LENGTH 1.72542E+05  2875.7      47.928      1.9970     5.46754E-03
 STRESS PERIOD TIME 5.36000E+05  8933.3      148.89      6.2037     1.69848E-02
         TOTAL TIME 4.46000E+07 7.43333E+05  12389.      516.20      1.4133    
1
 ------------------------------------------------------------------------------------------------------------
 
 SOLVING FOR TRANSPORT 

 ------------------------------------------------------------------------------------------------------------------------
     1 CALLS TO SPARSE MATRIX SOLVER PACKAGE IN TRANSPORT TIME STEP       4 STRESS PERIOD      18 SPECIES  1

 TOTAL OF       1OUTER ITERATIONS
  MAXIMUM CHANGE FOR EACH ITERATION:
   MAX. CHANGE        NODE  MAX. CHANGE        NODE  MAX. CHANGE        NODE  MAX. CHANGE        NODE  MAX. CHANGE        NODE
 ------------------------------------------------------------------------------------------------------------------------------------
  -0.14904E-10,        191

  MAXIMUM CHANGE FOR CLN NODE AT EACH ITERATION:
   MAX. CHANGE    CLN-CELL  MAX. CHANGE    CLN-CELL  MAX. CHANGE    CLN-CELL  MAX. CHANGE    CLN-CELL  MAX. CHANGE    CLN-CELL
 ------------------------------------------------------------------------------------------------------------------------------------
  -0.17761E-08,          1
     TRANSPORT SOLUTION COMPLETE FOR COMPONENT SPECIES NUMBER    1
     ------------------------------------------------------------
 UBUDSVU SAVING "    MASS STORAGE" ON UNIT 145 AT TIME STEP      4, STRESS PERIOD     18
 UBUDSVU SAVING "CLN MASS STORAGE" ON UNIT 145 AT TIME STEP      4, STRESS PERIOD     18
 UBUDSVU SAVING "CNST H MASS FLUX" ON UNIT 145 AT TIME STEP      4, STRESS PERIOD     18
 UBUDSVU SAVING "  WELL MASS FLUX" ON UNIT 145 AT TIME STEP      4, STRESS PERIOD     18

 TRANSPORT SOLUTION COMPLETE FOR ALL SPECIES, SORTING OUTPUT FOR CONCENTRATIONS AND MASS BALANCE
 ----------------------------------------------------------------------------------------------------
     TRANSPORT OUTPUT FOR COMPONENT SPECIES NUMBER    1
     ------------------------------------------------------------

 CONC WILL BE SAVED ON UNIT  132 AT END OF TIME STEP        4, STRESS PERIOD       18

 CLN CONC WILL BE SAVED ON UNIT  188 AT END OF TIME STEP   4, STRESS PERIOD   18
1
  VOLUMETRIC BUDGET FOR ENTIRE MODEL AT END OF TIME STEP       4 IN STRESS PERIOD      18
  ---------------------------------------------------------------------------------------

     CUMULATIVE VOLUMES      L**3       RATES FOR THIS TIME STEP      L**3/T
     ------------------                 ------------------------

           IN:                                      IN:
           ---                                      ---
        MASS STORAGE =         258.1019          MASS STORAGE =           0.5000
    CNST H MASS FLUX =           0.0000      CNST H MASS FLUX =           0.0000
      WELL MASS FLUX =           0.0000        WELL MASS FLUX =           0.0000

            TOTAL IN =         258.1019              TOTAL IN =           0.5000

          OUT:                                     OUT:
          ----                                     ----
        MASS STORAGE =           0.2827          MASS STORAGE =       8.7166E-10
    CNST H MASS FLUX =           0.0000      CNST H MASS FLUX =           0.0000
      WELL MASS FLUX =         257.8191        WELL MASS FLUX =           0.5000

           TOTAL OUT =         258.1019             TOTAL OUT =           0.5000

            IN - OUT =       3.6653E-10              IN - OUT =      -8.7166E-10

 PERCENT DISCREPANCY =           0.00     PERCENT DISCREPANCY =          -0.00






          TIME SUMMARY AT END OF TIME STEP         4 IN STRESS PERIOD        18
                    SECONDS     MINUTES      HOURS       DAYS        YEARS
                    -----------------------------------------------------------
   TIME STEP LENGTH 1.72542E+05  2875.7      47.928      1.9970     5.46754E-03
 STRESS PERIOD TIME 5.36000E+05  8933.3      148.89      6.2037     1.69848E-02
         TOTAL TIME 4.46000E+07 7.43333E+05  12389.      516.20      1.4133    
1
 -------------------------------------------------------------------------------------
 
 SOLVING FOR HEAD 

 Outer-Iteration  Inner-Iteration  Backtracking  Number of        Incoming       Outgoing  Maximum HeadChange      Maximum Head Change
     Number           Count           Flag       Backtracks       Residual       Residual           Value              Location
        1                             0             0          0.350482E-01     0.350482E-01
        1                6                                                                       -0.104062                   400           GWF-node number
        1                6                                                                       -0.987137E-01                 2           CLN-node number
        2                             0             0          0.604561E-07     0.604561E-07
        2                1                                                                        0.393720E-07               190           GWF-node number
        2                1                                                                        0.102519E-06                 1           CLN-node number
     2 CALLS TO SPARSE MATRIX SOLVER PACKAGE  IN FLOW TIME STEP       5 STRESS PERIOD      18

 TOTAL OF       2OUTER ITERATIONS
  MAXIMUM CHANGE FOR EACH ITERATION:
   MAX. CHANGE        NODE  MAX. CHANGE        NODE  MAX. CHANGE        NODE  MAX. CHANGE        NODE  MAX. CHANGE        NODE
 ------------------------------------------------------------------------------------------------------------------------------------
  -0.10406    ,        400  0.39372E-07,        190

  MAXIMUM CHANGE FOR CLN NODE AT EACH ITERATION:
   MAX. CHANGE    CLN-CELL  MAX. CHANGE    CLN-CELL  MAX. CHANGE    CLN-CELL  MAX. CHANGE    CLN-CELL  MAX. CHANGE    CLN-CELL
 ------------------------------------------------------------------------------------------------------------------------------------
  -0.98714E-01,          2  0.10252E-06,          1

 HEAD/DRAWDOWN PRINTOUT FLAG = 1     TOTAL BUDGET PRINTOUT FLAG = 1
 CELL-BY-CELL FLOW TERM FLAG = 1
 CONCENTRATION PRINTOUT FLAG = 1

 OUTPUT FLAGS FOR ALL LAYERS ARE THE SAME:
   HEAD    DRAWDOWN  HEAD  DRAWDOWN    CONC    CONC
 PRINTOUT  PRINTOUT  SAVE    SAVE    PRINTOUT  SAVE
 ---------------------------------------------------
     0         0       1       1       0       1
 UBUDSVU SAVING "         STORAGE" ON UNIT  50 AT TIME STEP      5, STRESS PERIOD     18
 UBUDSV SAVING "     CLN STORAGE" ON UNIT 144 AT TIME STEP      5, STRESS PERIOD      18
 UBUDSVU SAVING "   CONSTANT HEAD" ON UNIT  50 AT TIME STEP      5, STRESS PERIOD     18
 UBUDSVU SAVING "   FLOW JA FACE " ON UNIT  50 AT TIME STEP      5, STRESS PERIOD     18
 UBUDSVU SAVING "             CLN" ON UNIT  50 AT TIME STEP      5, STRESS PERIOD     18
 UBUDSVU SAVING "  CLN CONST HEAD" ON UNIT 144 AT TIME STEP      5, STRESS PERIOD     18
 UBUDSVU SAVING "   FLOW CLN FACE" ON UNIT 144 AT TIME STEP      5, STRESS PERIOD     18
 UBUDSVU SAVING "             GWF" ON UNIT 144 AT TIME STEP      5, STRESS PERIOD     18
 UBUDSVU SAVING "           WELLS" ON UNIT  50 AT TIME STEP      5, STRESS PERIOD     18
 UBUDSVU SAVING "           WELLS" ON UNIT 144 AT TIME STEP      5, STRESS PERIOD     18

 HEAD WILL BE SAVED ON UNIT       30 AT END OF TIME STEP        5, STRESS PERIOD       18

 DRAWDOWN WILL BE SAVED ON UNIT   31 AT END OF TIME STEP   5, STRESS PERIOD   18

 CLN HEAD WILL BE SAVED ON UNIT   77 AT END OF TIME STEP   5, STRESS PERIOD   18
1
  VOLUMETRIC BUDGET FOR ENTIRE MODEL AT END OF TIME STEP       5 IN STRESS PERIOD      18
  ---------------------------------------------------------------------------------------

     CUMULATIVE VOLUMES      L**3       RATES FOR THIS TIME STEP      L**3/T
     ------------------                 ------------------------

           IN:                                      IN:
           ---                                      ---
             STORAGE =        2592.6444               STORAGE =           4.9971
         CLN STORAGE =           0.3562           CLN STORAGE =       2.9117E-03
       CONSTANT HEAD =           0.0000         CONSTANT HEAD =           0.0000
      CLN CONST HEAD =           0.0000        CLN CONST HEAD =           0.0000
               WELLS =           0.0000                 WELLS =           0.0000

            TOTAL IN =        2593.0006              TOTAL IN =           5.0000

          OUT:                                     OUT:
          ----                                     ----
             STORAGE =           0.0000               STORAGE =           0.0000
         CLN STORAGE =           0.0000           CLN STORAGE =           0.0000
       CONSTANT HEAD =           0.0000         CONSTANT HEAD =           0.0000
      CLN CONST HEAD =           0.0000        CLN CONST HEAD =           0.0000
               WELLS =        2593.0005                 WELLS =           5.0000

           TOTAL OUT =        2593.0005             TOTAL OUT =           5.0000

            IN - OUT =       2.1434E-05              IN - OUT =       4.6456E-08

 PERCENT DISCREPANCY =           0.00     PERCENT DISCREPANCY =           0.00






          TIME SUMMARY AT END OF TIME STEP         5 IN STRESS PERIOD        18
                    SECONDS     MINUTES      HOURS       DAYS        YEARS
                    -----------------------------------------------------------
   TIME STEP LENGTH 2.07051E+05  3450.8      57.514      2.3964     6.56105E-03
 STRESS PERIOD TIME 7.43051E+05  12384.      206.40      8.6001     2.35459E-02
         TOTAL TIME 4.48070E+07 7.46784E+05  12446.      518.60      1.4198    
1
 ------------------------------------------------------------------------------------------------------------
 
 SOLVING FOR TRANSPORT 

 ------------------------------------------------------------------------------------------------------------------------
     1 CALLS TO SPARSE MATRIX SOLVER PACKAGE IN TRANSPORT TIME STEP       5 STRESS PERIOD      18 SPECIES  1

 TOTAL OF       1OUTER ITERATIONS
  MAXIMUM CHANGE FOR EACH ITERATION:
   MAX. CHANGE        NODE  MAX. CHANGE        NODE  MAX. CHANGE        NODE  MAX. CHANGE        NODE  MAX. CHANGE        NODE
 ------------------------------------------------------------------------------------------------------------------------------------
   0.39000E-11,        191

  MAXIMUM CHANGE FOR CLN NODE AT EACH ITERATION:
   MAX. CHANGE    CLN-CELL  MAX. CHANGE    CLN-CELL  MAX. CHANGE    CLN-CELL  MAX. CHANGE    CLN-CELL  MAX. CHANGE    CLN-CELL
 ------------------------------------------------------------------------------------------------------------------------------------
   0.16147E-08,          1
     TRANSPORT SOLUTION COMPLETE FOR COMPONENT SPECIES NUMBER    1
     ------------------------------------------------------------
 UBUDSVU SAVING "    MASS STORAGE" ON UNIT 145 AT TIME STEP      5, STRESS PERIOD     18
 UBUDSVU SAVING "CLN MASS STORAGE" ON UNIT 145 AT TIME STEP      5, STRESS PERIOD     18
 UBUDSVU SAVING "CNST H MASS FLUX" ON UNIT 145 AT TIME STEP      5, STRESS PERIOD     18
 UBUDSVU SAVING "  WELL MASS FLUX" ON UNIT 145 AT TIME STEP      5, STRESS PERIOD     18

 TRANSPORT SOLUTION COMPLETE FOR ALL SPECIES, SORTING OUTPUT FOR CONCENTRATIONS AND MASS BALANCE
 ----------------------------------------------------------------------------------------------------
     TRANSPORT OUTPUT FOR COMPONENT SPECIES NUMBER    1
     ------------------------------------------------------------

 CONC WILL BE SAVED ON UNIT  132 AT END OF TIME STEP        5, STRESS PERIOD       18

 CLN CONC WILL BE SAVED ON UNIT  188 AT END OF TIME STEP   5, STRESS PERIOD   18
1
  VOLUMETRIC BUDGET FOR ENTIRE MODEL AT END OF TIME STEP       5 IN STRESS PERIOD      18
  ---------------------------------------------------------------------------------------

     CUMULATIVE VOLUMES      L**3       RATES FOR THIS TIME STEP      L**3/T
     ------------------                 ------------------------

           IN:                                      IN:
           ---                                      ---
        MASS STORAGE =         259.3001          MASS STORAGE =           0.5000
    CNST H MASS FLUX =           0.0000      CNST H MASS FLUX =           0.0000
      WELL MASS FLUX =           0.0000        WELL MASS FLUX =           0.0000

            TOTAL IN =         259.3001              TOTAL IN =           0.5000

          OUT:                                     OUT:
          ----                                     ----
        MASS STORAGE =           0.2827          MASS STORAGE =           0.0000
    CNST H MASS FLUX =           0.0000      CNST H MASS FLUX =           0.0000
      WELL MASS FLUX =         259.0173        WELL MASS FLUX =           0.5000

           TOTAL OUT =         259.3001             TOTAL OUT =           0.5000

            IN - OUT =       3.6744E-10              IN - OUT =           0.0000

 PERCENT DISCREPANCY =           0.00     PERCENT DISCREPANCY =           0.00






          TIME SUMMARY AT END OF TIME STEP         5 IN STRESS PERIOD        18
                    SECONDS     MINUTES      HOURS       DAYS        YEARS
                    -----------------------------------------------------------
   TIME STEP LENGTH 2.07051E+05  3450.8      57.514      2.3964     6.56105E-03
 STRESS PERIOD TIME 7.43051E+05  12384.      206.40      8.6001     2.35459E-02
         TOTAL TIME 4.48070E+07 7.46784E+05  12446.      518.60      1.4198    
1
 -------------------------------------------------------------------------------------
 
 SOLVING FOR HEAD 

 Outer-Iteration  Inner-Iteration  Backtracking  Number of        Incoming       Outgoing  Maximum HeadChange      Maximum Head Change
     Number           Count           Flag       Backtracks       Residual       Residual           Value              Location
        1                             0             0          0.350147E-01     0.350147E-01
        1                6                                                                       -0.124734                   400           GWF-node number
        1                6                                                                       -0.118342                     3           CLN-node number
        2                             0             0          0.128179E-06     0.128179E-06
        2                1                                                                        0.384593E-07               190           GWF-node number
        2                1                                                                        0.101993E-06                 1           CLN-node number
     2 CALLS TO SPARSE MATRIX SOLVER PACKAGE  IN FLOW TIME STEP       6 STRESS PERIOD      18

 TOTAL OF       2OUTER ITERATIONS
  MAXIMUM CHANGE FOR EACH ITERATION:
   MAX. CHANGE        NODE  MAX. CHANGE        NODE  MAX. CHANGE        NODE  MAX. CHANGE        NODE  MAX. CHANGE        NODE
 ------------------------------------------------------------------------------------------------------------------------------------
  -0.12473    ,        400  0.38459E-07,        190

  MAXIMUM CHANGE FOR CLN NODE AT EACH ITERATION:
   MAX. CHANGE    CLN-CELL  MAX. CHANGE    CLN-CELL  MAX. CHANGE    CLN-CELL  MAX. CHANGE    CLN-CELL  MAX. CHANGE    CLN-CELL
 ------------------------------------------------------------------------------------------------------------------------------------
  -0.11834    ,          3  0.10199E-06,          1

 HEAD/DRAWDOWN PRINTOUT FLAG = 1     TOTAL BUDGET PRINTOUT FLAG = 1
 CELL-BY-CELL FLOW TERM FLAG = 1
 CONCENTRATION PRINTOUT FLAG = 1

 OUTPUT FLAGS FOR ALL LAYERS ARE THE SAME:
   HEAD    DRAWDOWN  HEAD  DRAWDOWN    CONC    CONC
 PRINTOUT  PRINTOUT  SAVE    SAVE    PRINTOUT  SAVE
 ---------------------------------------------------
     0         0       1       1       0       1
 UBUDSVU SAVING "         STORAGE" ON UNIT  50 AT TIME STEP      6, STRESS PERIOD     18
 UBUDSV SAVING "     CLN STORAGE" ON UNIT 144 AT TIME STEP      6, STRESS PERIOD      18
 UBUDSVU SAVING "   CONSTANT HEAD" ON UNIT  50 AT TIME STEP      6, STRESS PERIOD     18
 UBUDSVU SAVING "   FLOW JA FACE " ON UNIT  50 AT TIME STEP      6, STRESS PERIOD     18
 UBUDSVU SAVING "             CLN" ON UNIT  50 AT TIME STEP      6, STRESS PERIOD     18
 UBUDSVU SAVING "  CLN CONST HEAD" ON UNIT 144 AT TIME STEP      6, STRESS PERIOD     18
 UBUDSVU SAVING "   FLOW CLN FACE" ON UNIT 144 AT TIME STEP      6, STRESS PERIOD     18
 UBUDSVU SAVING "             GWF" ON UNIT 144 AT TIME STEP      6, STRESS PERIOD     18
 UBUDSVU SAVING "           WELLS" ON UNIT  50 AT TIME STEP      6, STRESS PERIOD     18
 UBUDSVU SAVING "           WELLS" ON UNIT 144 AT TIME STEP      6, STRESS PERIOD     18

 HEAD WILL BE SAVED ON UNIT       30 AT END OF TIME STEP        6, STRESS PERIOD       18

 DRAWDOWN WILL BE SAVED ON UNIT   31 AT END OF TIME STEP   6, STRESS PERIOD   18

 CLN HEAD WILL BE SAVED ON UNIT   77 AT END OF TIME STEP   6, STRESS PERIOD   18
1
  VOLUMETRIC BUDGET FOR ENTIRE MODEL AT END OF TIME STEP       6 IN STRESS PERIOD      18
  ---------------------------------------------------------------------------------------

     CUMULATIVE VOLUMES      L**3       RATES FOR THIS TIME STEP      L**3/T
     ------------------                 ------------------------

           IN:                                      IN:
           ---                                      ---
             STORAGE =        2607.0146               STORAGE =           4.9971
         CLN STORAGE =           0.3645           CLN STORAGE =       2.9089E-03
       CONSTANT HEAD =           0.0000         CONSTANT HEAD =           0.0000
      CLN CONST HEAD =           0.0000        CLN CONST HEAD =           0.0000
               WELLS =           0.0000                 WELLS =           0.0000

            TOTAL IN =        2607.3791              TOTAL IN =           5.0000

          OUT:                                     OUT:
          ----                                     ----
             STORAGE =           0.0000               STORAGE =           0.0000
         CLN STORAGE =           0.0000           CLN STORAGE =           0.0000
       CONSTANT HEAD =           0.0000         CONSTANT HEAD =           0.0000
      CLN CONST HEAD =           0.0000        CLN CONST HEAD =           0.0000
               WELLS =        2607.3791                 WELLS =           5.0000

           TOTAL OUT =        2607.3791             TOTAL OUT =           5.0000

            IN - OUT =       2.1351E-05              IN - OUT =      -2.8676E-08

 PERCENT DISCREPANCY =           0.00     PERCENT DISCREPANCY =          -0.00






          TIME SUMMARY AT END OF TIME STEP         6 IN STRESS PERIOD        18
                    SECONDS     MINUTES      HOURS       DAYS        YEARS
                    -----------------------------------------------------------
   TIME STEP LENGTH 2.48461E+05  4141.0      69.017      2.8757     7.87326E-03
 STRESS PERIOD TIME 9.91512E+05  16525.      275.42      11.476     3.14191E-02
         TOTAL TIME 4.50555E+07 7.50925E+05  12515.      521.48      1.4277    
1
 ------------------------------------------------------------------------------------------------------------
 
 SOLVING FOR TRANSPORT 

 ------------------------------------------------------------------------------------------------------------------------
     1 CALLS TO SPARSE MATRIX SOLVER PACKAGE IN TRANSPORT TIME STEP       6 STRESS PERIOD      18 SPECIES  1

 TOTAL OF       1OUTER ITERATIONS
  MAXIMUM CHANGE FOR EACH ITERATION:
   MAX. CHANGE        NODE  MAX. CHANGE        NODE  MAX. CHANGE        NODE  MAX. CHANGE        NODE  MAX. CHANGE        NODE
 ------------------------------------------------------------------------------------------------------------------------------------
   0.47627E-11,        191

  MAXIMUM CHANGE FOR CLN NODE AT EACH ITERATION:
   MAX. CHANGE    CLN-CELL  MAX. CHANGE    CLN-CELL  MAX. CHANGE    CLN-CELL  MAX. CHANGE    CLN-CELL  MAX. CHANGE    CLN-CELL
 ------------------------------------------------------------------------------------------------------------------------------------
  -0.29455E-08,          2
     TRANSPORT SOLUTION COMPLETE FOR COMPONENT SPECIES NUMBER    1
     ------------------------------------------------------------
 UBUDSVU SAVING "    MASS STORAGE" ON UNIT 145 AT TIME STEP      6, STRESS PERIOD     18
 UBUDSVU SAVING "CLN MASS STORAGE" ON UNIT 145 AT TIME STEP      6, STRESS PERIOD     18
 UBUDSVU SAVING "CNST H MASS FLUX" ON UNIT 145 AT TIME STEP      6, STRESS PERIOD     18
 UBUDSVU SAVING "  WELL MASS FLUX" ON UNIT 145 AT TIME STEP      6, STRESS PERIOD     18

 TRANSPORT SOLUTION COMPLETE FOR ALL SPECIES, SORTING OUTPUT FOR CONCENTRATIONS AND MASS BALANCE
 ----------------------------------------------------------------------------------------------------
     TRANSPORT OUTPUT FOR COMPONENT SPECIES NUMBER    1
     ------------------------------------------------------------

 CONC WILL BE SAVED ON UNIT  132 AT END OF TIME STEP        6, STRESS PERIOD       18

 CLN CONC WILL BE SAVED ON UNIT  188 AT END OF TIME STEP   6, STRESS PERIOD   18
1
  VOLUMETRIC BUDGET FOR ENTIRE MODEL AT END OF TIME STEP       6 IN STRESS PERIOD      18
  ---------------------------------------------------------------------------------------

     CUMULATIVE VOLUMES      L**3       RATES FOR THIS TIME STEP      L**3/T
     ------------------                 ------------------------

           IN:                                      IN:
           ---                                      ---
        MASS STORAGE =         260.7379          MASS STORAGE =           0.5000
    CNST H MASS FLUX =           0.0000      CNST H MASS FLUX =           0.0000
      WELL MASS FLUX =           0.0000        WELL MASS FLUX =           0.0000

            TOTAL IN =         260.7379              TOTAL IN =           0.5000

          OUT:                                     OUT:
          ----                                     ----
        MASS STORAGE =           0.2827          MASS STORAGE =           0.0000
    CNST H MASS FLUX =           0.0000      CNST H MASS FLUX =           0.0000
      WELL MASS FLUX =         260.4552        WELL MASS FLUX =           0.5000

           TOTAL OUT =         260.7379             TOTAL OUT =           0.5000

            IN - OUT =       3.6903E-10              IN - OUT =           0.0000

 PERCENT DISCREPANCY =           0.00     PERCENT DISCREPANCY =           0.00






          TIME SUMMARY AT END OF TIME STEP         6 IN STRESS PERIOD        18
                    SECONDS     MINUTES      HOURS       DAYS        YEARS
                    -----------------------------------------------------------
   TIME STEP LENGTH 2.48461E+05  4141.0      69.017      2.8757     7.87326E-03
 STRESS PERIOD TIME 9.91512E+05  16525.      275.42      11.476     3.14191E-02
         TOTAL TIME 4.50555E+07 7.50925E+05  12515.      521.48      1.4277    
1
 -------------------------------------------------------------------------------------
 
 SOLVING FOR HEAD 

 Outer-Iteration  Inner-Iteration  Backtracking  Number of        Incoming       Outgoing  Maximum HeadChange      Maximum Head Change
     Number           Count           Flag       Backtracks       Residual       Residual           Value              Location
        1                             0             0          0.349749E-01     0.349749E-01
        1                6                                                                       -0.149480                   400           GWF-node number
        1                6                                                                       -0.141846                     3           CLN-node number
        2                             0             0          0.273189E-06     0.273189E-06
        2                1                                                                        0.482183E-07               190           GWF-node number
        2                1                                                                        0.134948E-06                 1           CLN-node number
     2 CALLS TO SPARSE MATRIX SOLVER PACKAGE  IN FLOW TIME STEP       7 STRESS PERIOD      18

 TOTAL OF       2OUTER ITERATIONS
  MAXIMUM CHANGE FOR EACH ITERATION:
   MAX. CHANGE        NODE  MAX. CHANGE        NODE  MAX. CHANGE        NODE  MAX. CHANGE        NODE  MAX. CHANGE        NODE
 ------------------------------------------------------------------------------------------------------------------------------------
  -0.14948    ,        400  0.48218E-07,        190

  MAXIMUM CHANGE FOR CLN NODE AT EACH ITERATION:
   MAX. CHANGE    CLN-CELL  MAX. CHANGE    CLN-CELL  MAX. CHANGE    CLN-CELL  MAX. CHANGE    CLN-CELL  MAX. CHANGE    CLN-CELL
 ------------------------------------------------------------------------------------------------------------------------------------
  -0.14185    ,          3  0.13495E-06,          1

 HEAD/DRAWDOWN PRINTOUT FLAG = 1     TOTAL BUDGET PRINTOUT FLAG = 1
 CELL-BY-CELL FLOW TERM FLAG = 1
 CONCENTRATION PRINTOUT FLAG = 1

 OUTPUT FLAGS FOR ALL LAYERS ARE THE SAME:
   HEAD    DRAWDOWN  HEAD  DRAWDOWN    CONC    CONC
 PRINTOUT  PRINTOUT  SAVE    SAVE    PRINTOUT  SAVE
 ---------------------------------------------------
     0         0       1       1       0       1
 UBUDSVU SAVING "         STORAGE" ON UNIT  50 AT TIME STEP      7, STRESS PERIOD     18
 UBUDSV SAVING "     CLN STORAGE" ON UNIT 144 AT TIME STEP      7, STRESS PERIOD      18
 UBUDSVU SAVING "   CONSTANT HEAD" ON UNIT  50 AT TIME STEP      7, STRESS PERIOD     18
 UBUDSVU SAVING "   FLOW JA FACE " ON UNIT  50 AT TIME STEP      7, STRESS PERIOD     18
 UBUDSVU SAVING "             CLN" ON UNIT  50 AT TIME STEP      7, STRESS PERIOD     18
 UBUDSVU SAVING "  CLN CONST HEAD" ON UNIT 144 AT TIME STEP      7, STRESS PERIOD     18
 UBUDSVU SAVING "   FLOW CLN FACE" ON UNIT 144 AT TIME STEP      7, STRESS PERIOD     18
 UBUDSVU SAVING "             GWF" ON UNIT 144 AT TIME STEP      7, STRESS PERIOD     18
 UBUDSVU SAVING "           WELLS" ON UNIT  50 AT TIME STEP      7, STRESS PERIOD     18
 UBUDSVU SAVING "           WELLS" ON UNIT 144 AT TIME STEP      7, STRESS PERIOD     18

 HEAD WILL BE SAVED ON UNIT       30 AT END OF TIME STEP        7, STRESS PERIOD       18

 DRAWDOWN WILL BE SAVED ON UNIT   31 AT END OF TIME STEP   7, STRESS PERIOD   18

 CLN HEAD WILL BE SAVED ON UNIT   77 AT END OF TIME STEP   7, STRESS PERIOD   18
1
  VOLUMETRIC BUDGET FOR ENTIRE MODEL AT END OF TIME STEP       7 IN STRESS PERIOD      18
  ---------------------------------------------------------------------------------------

     CUMULATIVE VOLUMES      L**3       RATES FOR THIS TIME STEP      L**3/T
     ------------------                 ------------------------

           IN:                                      IN:
           ---                                      ---
             STORAGE =        2624.2588               STORAGE =           4.9971
         CLN STORAGE =           0.3746           CLN STORAGE =       2.9055E-03
       CONSTANT HEAD =           0.0000         CONSTANT HEAD =           0.0000
      CLN CONST HEAD =           0.0000        CLN CONST HEAD =           0.0000
               WELLS =           0.0000                 WELLS =           0.0000

            TOTAL IN =        2624.6333              TOTAL IN =           5.0000

          OUT:                                     OUT:
          ----                                     ----
             STORAGE =           0.0000               STORAGE =           0.0000
         CLN STORAGE =           0.0000           CLN STORAGE =           0.0000
       CONSTANT HEAD =           0.0000         CONSTANT HEAD =           0.0000
      CLN CONST HEAD =           0.0000        CLN CONST HEAD =           0.0000
               WELLS =        2624.6333                 WELLS =           5.0000

           TOTAL OUT =        2624.6333             TOTAL OUT =           5.0000

            IN - OUT =       2.1454E-05              IN - OUT =       2.9875E-08

 PERCENT DISCREPANCY =           0.00     PERCENT DISCREPANCY =           0.00






          TIME SUMMARY AT END OF TIME STEP         7 IN STRESS PERIOD        18
                    SECONDS     MINUTES      HOURS       DAYS        YEARS
                    -----------------------------------------------------------
   TIME STEP LENGTH 2.98153E+05  4969.2      82.820      3.4509     9.44791E-03
 STRESS PERIOD TIME 1.28967E+06  21494.      358.24      14.927     4.08670E-02
         TOTAL TIME 4.53537E+07 7.55894E+05  12598.      524.93      1.4372    
1
 ------------------------------------------------------------------------------------------------------------
 
 SOLVING FOR TRANSPORT 

 ------------------------------------------------------------------------------------------------------------------------
     1 CALLS TO SPARSE MATRIX SOLVER PACKAGE IN TRANSPORT TIME STEP       7 STRESS PERIOD      18 SPECIES  1

 TOTAL OF       1OUTER ITERATIONS
  MAXIMUM CHANGE FOR EACH ITERATION:
   MAX. CHANGE        NODE  MAX. CHANGE        NODE  MAX. CHANGE        NODE  MAX. CHANGE        NODE  MAX. CHANGE        NODE
 ------------------------------------------------------------------------------------------------------------------------------------
   0.10450E-10,        191

  MAXIMUM CHANGE FOR CLN NODE AT EACH ITERATION:
   MAX. CHANGE    CLN-CELL  MAX. CHANGE    CLN-CELL  MAX. CHANGE    CLN-CELL  MAX. CHANGE    CLN-CELL  MAX. CHANGE    CLN-CELL
 ------------------------------------------------------------------------------------------------------------------------------------
   0.15419E-08,          2
     TRANSPORT SOLUTION COMPLETE FOR COMPONENT SPECIES NUMBER    1
     ------------------------------------------------------------
 UBUDSVU SAVING "    MASS STORAGE" ON UNIT 145 AT TIME STEP      7, STRESS PERIOD     18
 UBUDSVU SAVING "CLN MASS STORAGE" ON UNIT 145 AT TIME STEP      7, STRESS PERIOD     18
 UBUDSVU SAVING "CNST H MASS FLUX" ON UNIT 145 AT TIME STEP      7, STRESS PERIOD     18
 UBUDSVU SAVING "  WELL MASS FLUX" ON UNIT 145 AT TIME STEP      7, STRESS PERIOD     18

 TRANSPORT SOLUTION COMPLETE FOR ALL SPECIES, SORTING OUTPUT FOR CONCENTRATIONS AND MASS BALANCE
 ----------------------------------------------------------------------------------------------------
     TRANSPORT OUTPUT FOR COMPONENT SPECIES NUMBER    1
     ------------------------------------------------------------

 CONC WILL BE SAVED ON UNIT  132 AT END OF TIME STEP        7, STRESS PERIOD       18

 CLN CONC WILL BE SAVED ON UNIT  188 AT END OF TIME STEP   7, STRESS PERIOD   18
1
  VOLUMETRIC BUDGET FOR ENTIRE MODEL AT END OF TIME STEP       7 IN STRESS PERIOD      18
  ---------------------------------------------------------------------------------------

     CUMULATIVE VOLUMES      L**3       RATES FOR THIS TIME STEP      L**3/T
     ------------------                 ------------------------

           IN:                                      IN:
           ---                                      ---
        MASS STORAGE =         262.4633          MASS STORAGE =           0.5000
    CNST H MASS FLUX =           0.0000      CNST H MASS FLUX =           0.0000
      WELL MASS FLUX =           0.0000        WELL MASS FLUX =           0.0000

            TOTAL IN =         262.4633              TOTAL IN =           0.5000

          OUT:                                     OUT:
          ----                                     ----
        MASS STORAGE =           0.2827          MASS STORAGE =       3.6925E-10
    CNST H MASS FLUX =           0.0000      CNST H MASS FLUX =           0.0000
      WELL MASS FLUX =         262.1806        WELL MASS FLUX =           0.5000

           TOTAL OUT =         262.4633             TOTAL OUT =           0.5000

            IN - OUT =       3.7272E-10              IN - OUT =      -3.6925E-10

 PERCENT DISCREPANCY =           0.00     PERCENT DISCREPANCY =          -0.00






          TIME SUMMARY AT END OF TIME STEP         7 IN STRESS PERIOD        18
                    SECONDS     MINUTES      HOURS       DAYS        YEARS
                    -----------------------------------------------------------
   TIME STEP LENGTH 2.98153E+05  4969.2      82.820      3.4509     9.44791E-03
 STRESS PERIOD TIME 1.28967E+06  21494.      358.24      14.927     4.08670E-02
         TOTAL TIME 4.53537E+07 7.55894E+05  12598.      524.93      1.4372    
1
 -------------------------------------------------------------------------------------
 
 SOLVING FOR HEAD 

 Outer-Iteration  Inner-Iteration  Backtracking  Number of        Incoming       Outgoing  Maximum HeadChange      Maximum Head Change
     Number           Count           Flag       Backtracks       Residual       Residual           Value              Location
        1                             0             0          0.349276E-01     0.349276E-01
        1                6                                                                       -0.179089                   400           GWF-node number
        1                6                                                                       -0.169979                     3           CLN-node number
        2                             0             0          0.585624E-06     0.585624E-06
        2                1                                                                        0.121417E-06               416           GWF-node number
        2                1                                                                        0.280054E-06                 1           CLN-node number
     2 CALLS TO SPARSE MATRIX SOLVER PACKAGE  IN FLOW TIME STEP       8 STRESS PERIOD      18

 TOTAL OF       2OUTER ITERATIONS
  MAXIMUM CHANGE FOR EACH ITERATION:
   MAX. CHANGE        NODE  MAX. CHANGE        NODE  MAX. CHANGE        NODE  MAX. CHANGE        NODE  MAX. CHANGE        NODE
 ------------------------------------------------------------------------------------------------------------------------------------
  -0.17909    ,        400  0.12142E-06,        416

  MAXIMUM CHANGE FOR CLN NODE AT EACH ITERATION:
   MAX. CHANGE    CLN-CELL  MAX. CHANGE    CLN-CELL  MAX. CHANGE    CLN-CELL  MAX. CHANGE    CLN-CELL  MAX. CHANGE    CLN-CELL
 ------------------------------------------------------------------------------------------------------------------------------------
  -0.16998    ,          3  0.28005E-06,          1

 HEAD/DRAWDOWN PRINTOUT FLAG = 1     TOTAL BUDGET PRINTOUT FLAG = 1
 CELL-BY-CELL FLOW TERM FLAG = 1
 CONCENTRATION PRINTOUT FLAG = 1

 OUTPUT FLAGS FOR ALL LAYERS ARE THE SAME:
   HEAD    DRAWDOWN  HEAD  DRAWDOWN    CONC    CONC
 PRINTOUT  PRINTOUT  SAVE    SAVE    PRINTOUT  SAVE
 ---------------------------------------------------
     0         0       1       1       0       1
 UBUDSVU SAVING "         STORAGE" ON UNIT  50 AT TIME STEP      8, STRESS PERIOD     18
 UBUDSV SAVING "     CLN STORAGE" ON UNIT 144 AT TIME STEP      8, STRESS PERIOD      18
 UBUDSVU SAVING "   CONSTANT HEAD" ON UNIT  50 AT TIME STEP      8, STRESS PERIOD     18
 UBUDSVU SAVING "   FLOW JA FACE " ON UNIT  50 AT TIME STEP      8, STRESS PERIOD     18
 UBUDSVU SAVING "             CLN" ON UNIT  50 AT TIME STEP      8, STRESS PERIOD     18
 UBUDSVU SAVING "  CLN CONST HEAD" ON UNIT 144 AT TIME STEP      8, STRESS PERIOD     18
 UBUDSVU SAVING "   FLOW CLN FACE" ON UNIT 144 AT TIME STEP      8, STRESS PERIOD     18
 UBUDSVU SAVING "             GWF" ON UNIT 144 AT TIME STEP      8, STRESS PERIOD     18
 UBUDSVU SAVING "           WELLS" ON UNIT  50 AT TIME STEP      8, STRESS PERIOD     18
 UBUDSVU SAVING "           WELLS" ON UNIT 144 AT TIME STEP      8, STRESS PERIOD     18

 HEAD WILL BE SAVED ON UNIT       30 AT END OF TIME STEP        8, STRESS PERIOD       18

 DRAWDOWN WILL BE SAVED ON UNIT   31 AT END OF TIME STEP   8, STRESS PERIOD   18

 CLN HEAD WILL BE SAVED ON UNIT   77 AT END OF TIME STEP   8, STRESS PERIOD   18
1
  VOLUMETRIC BUDGET FOR ENTIRE MODEL AT END OF TIME STEP       8 IN STRESS PERIOD      18
  ---------------------------------------------------------------------------------------

     CUMULATIVE VOLUMES      L**3       RATES FOR THIS TIME STEP      L**3/T
     ------------------                 ------------------------

           IN:                                      IN:
           ---                                      ---
             STORAGE =        2644.9519               STORAGE =           4.9971
         CLN STORAGE =           0.3866           CLN STORAGE =       2.9015E-03
       CONSTANT HEAD =           0.0000         CONSTANT HEAD =           0.0000
      CLN CONST HEAD =           0.0000        CLN CONST HEAD =           0.0000
               WELLS =           0.0000                 WELLS =           0.0000

            TOTAL IN =        2645.3384              TOTAL IN =           5.0000

          OUT:                                     OUT:
          ----                                     ----
             STORAGE =           0.0000               STORAGE =           0.0000
         CLN STORAGE =           0.0000           CLN STORAGE =           0.0000
       CONSTANT HEAD =           0.0000         CONSTANT HEAD =           0.0000
      CLN CONST HEAD =           0.0000        CLN CONST HEAD =           0.0000
               WELLS =        2645.3384                 WELLS =           5.0000

           TOTAL OUT =        2645.3384             TOTAL OUT =           5.0000

            IN - OUT =       2.1579E-05              IN - OUT =       3.0187E-08

 PERCENT DISCREPANCY =           0.00     PERCENT DISCREPANCY =           0.00






          TIME SUMMARY AT END OF TIME STEP         8 IN STRESS PERIOD        18
                    SECONDS     MINUTES      HOURS       DAYS        YEARS
                    -----------------------------------------------------------
   TIME STEP LENGTH 3.57784E+05  5963.1      99.384      4.1410     1.13375E-02
 STRESS PERIOD TIME 1.64745E+06  27457.      457.62      19.068     5.22045E-02
         TOTAL TIME 4.57114E+07 7.61857E+05  12698.      529.07      1.4485    
1
 ------------------------------------------------------------------------------------------------------------
 
 SOLVING FOR TRANSPORT 

 ------------------------------------------------------------------------------------------------------------------------
     1 CALLS TO SPARSE MATRIX SOLVER PACKAGE IN TRANSPORT TIME STEP       8 STRESS PERIOD      18 SPECIES  1

 TOTAL OF       1OUTER ITERATIONS
  MAXIMUM CHANGE FOR EACH ITERATION:
   MAX. CHANGE        NODE  MAX. CHANGE        NODE  MAX. CHANGE        NODE  MAX. CHANGE        NODE  MAX. CHANGE        NODE
 ------------------------------------------------------------------------------------------------------------------------------------
   0.37301E-10,        191

  MAXIMUM CHANGE FOR CLN NODE AT EACH ITERATION:
   MAX. CHANGE    CLN-CELL  MAX. CHANGE    CLN-CELL  MAX. CHANGE    CLN-CELL  MAX. CHANGE    CLN-CELL  MAX. CHANGE    CLN-CELL
 ------------------------------------------------------------------------------------------------------------------------------------
   0.10085E-08,          1
     TRANSPORT SOLUTION COMPLETE FOR COMPONENT SPECIES NUMBER    1
     ------------------------------------------------------------
 UBUDSVU SAVING "    MASS STORAGE" ON UNIT 145 AT TIME STEP      8, STRESS PERIOD     18
 UBUDSVU SAVING "CLN MASS STORAGE" ON UNIT 145 AT TIME STEP      8, STRESS PERIOD     18
 UBUDSVU SAVING "CNST H MASS FLUX" ON UNIT 145 AT TIME STEP      8, STRESS PERIOD     18
 UBUDSVU SAVING "  WELL MASS FLUX" ON UNIT 145 AT TIME STEP      8, STRESS PERIOD     18

 TRANSPORT SOLUTION COMPLETE FOR ALL SPECIES, SORTING OUTPUT FOR CONCENTRATIONS AND MASS BALANCE
 ----------------------------------------------------------------------------------------------------
     TRANSPORT OUTPUT FOR COMPONENT SPECIES NUMBER    1
     ------------------------------------------------------------

 CONC WILL BE SAVED ON UNIT  132 AT END OF TIME STEP        8, STRESS PERIOD       18

 CLN CONC WILL BE SAVED ON UNIT  188 AT END OF TIME STEP   8, STRESS PERIOD   18
1
  VOLUMETRIC BUDGET FOR ENTIRE MODEL AT END OF TIME STEP       8 IN STRESS PERIOD      18
  ---------------------------------------------------------------------------------------

     CUMULATIVE VOLUMES      L**3       RATES FOR THIS TIME STEP      L**3/T
     ------------------                 ------------------------

           IN:                                      IN:
           ---                                      ---
        MASS STORAGE =         264.5339          MASS STORAGE =           0.5000
    CNST H MASS FLUX =           0.0000      CNST H MASS FLUX =           0.0000
      WELL MASS FLUX =           0.0000        WELL MASS FLUX =           0.0000

            TOTAL IN =         264.5339              TOTAL IN =           0.5000

          OUT:                                     OUT:
          ----                                     ----
        MASS STORAGE =           0.2827          MASS STORAGE =           0.0000
    CNST H MASS FLUX =           0.0000      CNST H MASS FLUX =           0.0000
      WELL MASS FLUX =         264.2511        WELL MASS FLUX =           0.5000

           TOTAL OUT =         264.5339             TOTAL OUT =           0.5000

            IN - OUT =       3.9199E-10              IN - OUT =           0.0000

 PERCENT DISCREPANCY =           0.00     PERCENT DISCREPANCY =           0.00






          TIME SUMMARY AT END OF TIME STEP         8 IN STRESS PERIOD        18
                    SECONDS     MINUTES      HOURS       DAYS        YEARS
                    -----------------------------------------------------------
   TIME STEP LENGTH 3.57784E+05  5963.1      99.384      4.1410     1.13375E-02
 STRESS PERIOD TIME 1.64745E+06  27457.      457.62      19.068     5.22045E-02
         TOTAL TIME 4.57114E+07 7.61857E+05  12698.      529.07      1.4485    
1
 -------------------------------------------------------------------------------------
 
 SOLVING FOR HEAD 

 Outer-Iteration  Inner-Iteration  Backtracking  Number of        Incoming       Outgoing  Maximum HeadChange      Maximum Head Change
     Number           Count           Flag       Backtracks       Residual       Residual           Value              Location
        1                             0             0          0.348714E-01     0.348714E-01
        1                6                                                                       -0.214496                   400           GWF-node number
        1                6                                                                       -0.203639                     2           CLN-node number
        2                             0             0          0.126440E-05     0.126440E-05
        2                1                                                                        0.330967E-06               416           GWF-node number
        2                1                                                                        0.463963E-06                 1           CLN-node number
     2 CALLS TO SPARSE MATRIX SOLVER PACKAGE  IN FLOW TIME STEP       9 STRESS PERIOD      18

 TOTAL OF       2OUTER ITERATIONS
  MAXIMUM CHANGE FOR EACH ITERATION:
   MAX. CHANGE        NODE  MAX. CHANGE        NODE  MAX. CHANGE        NODE  MAX. CHANGE        NODE  MAX. CHANGE        NODE
 ------------------------------------------------------------------------------------------------------------------------------------
  -0.21450    ,        400  0.33097E-06,        416

  MAXIMUM CHANGE FOR CLN NODE AT EACH ITERATION:
   MAX. CHANGE    CLN-CELL  MAX. CHANGE    CLN-CELL  MAX. CHANGE    CLN-CELL  MAX. CHANGE    CLN-CELL  MAX. CHANGE    CLN-CELL
 ------------------------------------------------------------------------------------------------------------------------------------
  -0.20364    ,          2  0.46396E-06,          1

 HEAD/DRAWDOWN PRINTOUT FLAG = 1     TOTAL BUDGET PRINTOUT FLAG = 1
 CELL-BY-CELL FLOW TERM FLAG = 1
 CONCENTRATION PRINTOUT FLAG = 1

 OUTPUT FLAGS FOR ALL LAYERS ARE THE SAME:
   HEAD    DRAWDOWN  HEAD  DRAWDOWN    CONC    CONC
 PRINTOUT  PRINTOUT  SAVE    SAVE    PRINTOUT  SAVE
 ---------------------------------------------------
     0         0       1       1       0       1
 UBUDSVU SAVING "         STORAGE" ON UNIT  50 AT TIME STEP      9, STRESS PERIOD     18
 UBUDSV SAVING "     CLN STORAGE" ON UNIT 144 AT TIME STEP      9, STRESS PERIOD      18
 UBUDSVU SAVING "   CONSTANT HEAD" ON UNIT  50 AT TIME STEP      9, STRESS PERIOD     18
 UBUDSVU SAVING "   FLOW JA FACE " ON UNIT  50 AT TIME STEP      9, STRESS PERIOD     18
 UBUDSVU SAVING "             CLN" ON UNIT  50 AT TIME STEP      9, STRESS PERIOD     18
 UBUDSVU SAVING "  CLN CONST HEAD" ON UNIT 144 AT TIME STEP      9, STRESS PERIOD     18
 UBUDSVU SAVING "   FLOW CLN FACE" ON UNIT 144 AT TIME STEP      9, STRESS PERIOD     18
 UBUDSVU SAVING "             GWF" ON UNIT 144 AT TIME STEP      9, STRESS PERIOD     18
 UBUDSVU SAVING "           WELLS" ON UNIT  50 AT TIME STEP      9, STRESS PERIOD     18
 UBUDSVU SAVING "           WELLS" ON UNIT 144 AT TIME STEP      9, STRESS PERIOD     18

 HEAD WILL BE SAVED ON UNIT       30 AT END OF TIME STEP        9, STRESS PERIOD       18

 DRAWDOWN WILL BE SAVED ON UNIT   31 AT END OF TIME STEP   9, STRESS PERIOD   18

 CLN HEAD WILL BE SAVED ON UNIT   77 AT END OF TIME STEP   9, STRESS PERIOD   18
1
  VOLUMETRIC BUDGET FOR ENTIRE MODEL AT END OF TIME STEP       9 IN STRESS PERIOD      18
  ---------------------------------------------------------------------------------------

     CUMULATIVE VOLUMES      L**3       RATES FOR THIS TIME STEP      L**3/T
     ------------------                 ------------------------

           IN:                                      IN:
           ---                                      ---
             STORAGE =        2669.7836               STORAGE =           4.9971
         CLN STORAGE =           0.4010           CLN STORAGE =       2.8967E-03
       CONSTANT HEAD =           0.0000         CONSTANT HEAD =           0.0000
      CLN CONST HEAD =           0.0000        CLN CONST HEAD =           0.0000
               WELLS =           0.0000                 WELLS =           0.0000

            TOTAL IN =        2670.1846              TOTAL IN =           5.0000

          OUT:                                     OUT:
          ----                                     ----
             STORAGE =           0.0000               STORAGE =           0.0000
         CLN STORAGE =           0.0000           CLN STORAGE =           0.0000
       CONSTANT HEAD =           0.0000         CONSTANT HEAD =           0.0000
      CLN CONST HEAD =           0.0000        CLN CONST HEAD =           0.0000
               WELLS =        2670.1845                 WELLS =           5.0000

           TOTAL OUT =        2670.1845             TOTAL OUT =           5.0000

            IN - OUT =       2.1777E-05              IN - OUT =       3.9726E-08

 PERCENT DISCREPANCY =           0.00     PERCENT DISCREPANCY =           0.00






          TIME SUMMARY AT END OF TIME STEP         9 IN STRESS PERIOD        18
                    SECONDS     MINUTES      HOURS       DAYS        YEARS
                    -----------------------------------------------------------
   TIME STEP LENGTH 4.29341E+05  7155.7      119.26      4.9692     1.36050E-02
 STRESS PERIOD TIME 2.07679E+06  34613.      576.89      24.037     6.58095E-02
         TOTAL TIME 4.61408E+07 7.69013E+05  12817.      534.04      1.4621    
1
 ------------------------------------------------------------------------------------------------------------
 
 SOLVING FOR TRANSPORT 

 ------------------------------------------------------------------------------------------------------------------------
     1 CALLS TO SPARSE MATRIX SOLVER PACKAGE IN TRANSPORT TIME STEP       9 STRESS PERIOD      18 SPECIES  1

 TOTAL OF       1OUTER ITERATIONS
  MAXIMUM CHANGE FOR EACH ITERATION:
   MAX. CHANGE        NODE  MAX. CHANGE        NODE  MAX. CHANGE        NODE  MAX. CHANGE        NODE  MAX. CHANGE        NODE
 ------------------------------------------------------------------------------------------------------------------------------------
   0.81411E-10,        191

  MAXIMUM CHANGE FOR CLN NODE AT EACH ITERATION:
   MAX. CHANGE    CLN-CELL  MAX. CHANGE    CLN-CELL  MAX. CHANGE    CLN-CELL  MAX. CHANGE    CLN-CELL  MAX. CHANGE    CLN-CELL
 ------------------------------------------------------------------------------------------------------------------------------------
   0.91021E-09,          1
     TRANSPORT SOLUTION COMPLETE FOR COMPONENT SPECIES NUMBER    1
     ------------------------------------------------------------
 UBUDSVU SAVING "    MASS STORAGE" ON UNIT 145 AT TIME STEP      9, STRESS PERIOD     18
 UBUDSVU SAVING "CLN MASS STORAGE" ON UNIT 145 AT TIME STEP      9, STRESS PERIOD     18
 UBUDSVU SAVING "CNST H MASS FLUX" ON UNIT 145 AT TIME STEP      9, STRESS PERIOD     18
 UBUDSVU SAVING "  WELL MASS FLUX" ON UNIT 145 AT TIME STEP      9, STRESS PERIOD     18

 TRANSPORT SOLUTION COMPLETE FOR ALL SPECIES, SORTING OUTPUT FOR CONCENTRATIONS AND MASS BALANCE
 ----------------------------------------------------------------------------------------------------
     TRANSPORT OUTPUT FOR COMPONENT SPECIES NUMBER    1
     ------------------------------------------------------------

 CONC WILL BE SAVED ON UNIT  132 AT END OF TIME STEP        9, STRESS PERIOD       18

 CLN CONC WILL BE SAVED ON UNIT  188 AT END OF TIME STEP   9, STRESS PERIOD   18
1
  VOLUMETRIC BUDGET FOR ENTIRE MODEL AT END OF TIME STEP       9 IN STRESS PERIOD      18
  ---------------------------------------------------------------------------------------

     CUMULATIVE VOLUMES      L**3       RATES FOR THIS TIME STEP      L**3/T
     ------------------                 ------------------------

           IN:                                      IN:
           ---                                      ---
        MASS STORAGE =         267.0185          MASS STORAGE =           0.5000
    CNST H MASS FLUX =           0.0000      CNST H MASS FLUX =           0.0000
      WELL MASS FLUX =           0.0000        WELL MASS FLUX =           0.0000

            TOTAL IN =         267.0185              TOTAL IN =           0.5000

          OUT:                                     OUT:
          ----                                     ----
        MASS STORAGE =           0.2827          MASS STORAGE =           0.0000
    CNST H MASS FLUX =           0.0000      CNST H MASS FLUX =           0.0000
      WELL MASS FLUX =         266.7357        WELL MASS FLUX =           0.5000

           TOTAL OUT =         267.0185             TOTAL OUT =           0.5000

            IN - OUT =       4.4338E-10              IN - OUT =           0.0000

 PERCENT DISCREPANCY =           0.00     PERCENT DISCREPANCY =           0.00






          TIME SUMMARY AT END OF TIME STEP         9 IN STRESS PERIOD        18
                    SECONDS     MINUTES      HOURS       DAYS        YEARS
                    -----------------------------------------------------------
   TIME STEP LENGTH 4.29341E+05  7155.7      119.26      4.9692     1.36050E-02
 STRESS PERIOD TIME 2.07679E+06  34613.      576.89      24.037     6.58095E-02
         TOTAL TIME 4.61408E+07 7.69013E+05  12817.      534.04      1.4621    
1
 -------------------------------------------------------------------------------------
 
 SOLVING FOR HEAD 

 Outer-Iteration  Inner-Iteration  Backtracking  Number of        Incoming       Outgoing  Maximum HeadChange      Maximum Head Change
     Number           Count           Flag       Backtracks       Residual       Residual           Value              Location
        1                             0             0          0.348049E-01     0.348049E-01
        1                7                                                                       -0.256808                   400           GWF-node number
        1                7                                                                       -0.243885                     3           CLN-node number
        2                             0             0          0.275363E-05     0.275363E-05
        2                1                                                                       -0.531983E-07               417           GWF-node number
        2                1                                                                        0.761175E-07                 1           CLN-node number
     2 CALLS TO SPARSE MATRIX SOLVER PACKAGE  IN FLOW TIME STEP      10 STRESS PERIOD      18

 TOTAL OF       2OUTER ITERATIONS
  MAXIMUM CHANGE FOR EACH ITERATION:
   MAX. CHANGE        NODE  MAX. CHANGE        NODE  MAX. CHANGE        NODE  MAX. CHANGE        NODE  MAX. CHANGE        NODE
 ------------------------------------------------------------------------------------------------------------------------------------
  -0.25681    ,        400 -0.53198E-07,        417

  MAXIMUM CHANGE FOR CLN NODE AT EACH ITERATION:
   MAX. CHANGE    CLN-CELL  MAX. CHANGE    CLN-CELL  MAX. CHANGE    CLN-CELL  MAX. CHANGE    CLN-CELL  MAX. CHANGE    CLN-CELL
 ------------------------------------------------------------------------------------------------------------------------------------
  -0.24389    ,          3  0.76117E-07,          1

 HEAD/DRAWDOWN PRINTOUT FLAG = 1     TOTAL BUDGET PRINTOUT FLAG = 1
 CELL-BY-CELL FLOW TERM FLAG = 1
 CONCENTRATION PRINTOUT FLAG = 1

 OUTPUT FLAGS FOR ALL LAYERS ARE THE SAME:
   HEAD    DRAWDOWN  HEAD  DRAWDOWN    CONC    CONC
 PRINTOUT  PRINTOUT  SAVE    SAVE    PRINTOUT  SAVE
 ---------------------------------------------------
     0         0       1       1       0       1
 UBUDSVU SAVING "         STORAGE" ON UNIT  50 AT TIME STEP     10, STRESS PERIOD     18
 UBUDSV SAVING "     CLN STORAGE" ON UNIT 144 AT TIME STEP     10, STRESS PERIOD      18
 UBUDSVU SAVING "   CONSTANT HEAD" ON UNIT  50 AT TIME STEP     10, STRESS PERIOD     18
 UBUDSVU SAVING "   FLOW JA FACE " ON UNIT  50 AT TIME STEP     10, STRESS PERIOD     18
 UBUDSVU SAVING "             CLN" ON UNIT  50 AT TIME STEP     10, STRESS PERIOD     18
 UBUDSVU SAVING "  CLN CONST HEAD" ON UNIT 144 AT TIME STEP     10, STRESS PERIOD     18
 UBUDSVU SAVING "   FLOW CLN FACE" ON UNIT 144 AT TIME STEP     10, STRESS PERIOD     18
 UBUDSVU SAVING "             GWF" ON UNIT 144 AT TIME STEP     10, STRESS PERIOD     18
 UBUDSVU SAVING "           WELLS" ON UNIT  50 AT TIME STEP     10, STRESS PERIOD     18
 UBUDSVU SAVING "           WELLS" ON UNIT 144 AT TIME STEP     10, STRESS PERIOD     18

 HEAD WILL BE SAVED ON UNIT       30 AT END OF TIME STEP       10, STRESS PERIOD       18

 DRAWDOWN WILL BE SAVED ON UNIT   31 AT END OF TIME STEP  10, STRESS PERIOD   18

 CLN HEAD WILL BE SAVED ON UNIT   77 AT END OF TIME STEP  10, STRESS PERIOD   18
1
  VOLUMETRIC BUDGET FOR ENTIRE MODEL AT END OF TIME STEP      10 IN STRESS PERIOD      18
  ---------------------------------------------------------------------------------------

     CUMULATIVE VOLUMES      L**3       RATES FOR THIS TIME STEP      L**3/T
     ------------------                 ------------------------

           IN:                                      IN:
           ---                                      ---
             STORAGE =        2699.5817               STORAGE =           4.9971
         CLN STORAGE =           0.4182           CLN STORAGE =       2.8910E-03
       CONSTANT HEAD =           0.0000         CONSTANT HEAD =           0.0000
      CLN CONST HEAD =           0.0000        CLN CONST HEAD =           0.0000
               WELLS =           0.0000                 WELLS =           0.0000

            TOTAL IN =        2699.9999              TOTAL IN =           5.0000

          OUT:                                     OUT:
          ----                                     ----
             STORAGE =           0.0000               STORAGE =           0.0000
         CLN STORAGE =           0.0000           CLN STORAGE =           0.0000
       CONSTANT HEAD =           0.0000         CONSTANT HEAD =           0.0000
      CLN CONST HEAD =           0.0000        CLN CONST HEAD =           0.0000
               WELLS =        2699.9999                 WELLS =           5.0000

           TOTAL OUT =        2699.9999             TOTAL OUT =           5.0000

            IN - OUT =       2.1926E-05              IN - OUT =       2.5104E-08

 PERCENT DISCREPANCY =           0.00     PERCENT DISCREPANCY =           0.00






          TIME SUMMARY AT END OF TIME STEP        10 IN STRESS PERIOD        18
                    SECONDS     MINUTES      HOURS       DAYS        YEARS
                    -----------------------------------------------------------
   TIME STEP LENGTH 5.15209E+05  8586.8      143.11      5.9631     1.63260E-02
 STRESS PERIOD TIME 2.59200E+06  43200.      720.00      30.000     8.21355E-02
         TOTAL TIME 4.66560E+07 7.77600E+05  12960.      540.00      1.4784    
1
 ------------------------------------------------------------------------------------------------------------
 
 SOLVING FOR TRANSPORT 

 ------------------------------------------------------------------------------------------------------------------------
     1 CALLS TO SPARSE MATRIX SOLVER PACKAGE IN TRANSPORT TIME STEP      10 STRESS PERIOD      18 SPECIES  1

 TOTAL OF       1OUTER ITERATIONS
  MAXIMUM CHANGE FOR EACH ITERATION:
   MAX. CHANGE        NODE  MAX. CHANGE        NODE  MAX. CHANGE        NODE  MAX. CHANGE        NODE  MAX. CHANGE        NODE
 ------------------------------------------------------------------------------------------------------------------------------------
   0.59112E-11,        190

  MAXIMUM CHANGE FOR CLN NODE AT EACH ITERATION:
   MAX. CHANGE    CLN-CELL  MAX. CHANGE    CLN-CELL  MAX. CHANGE    CLN-CELL  MAX. CHANGE    CLN-CELL  MAX. CHANGE    CLN-CELL
 ------------------------------------------------------------------------------------------------------------------------------------
  -0.22483E-08,          1
     TRANSPORT SOLUTION COMPLETE FOR COMPONENT SPECIES NUMBER    1
     ------------------------------------------------------------
 UBUDSVU SAVING "    MASS STORAGE" ON UNIT 145 AT TIME STEP     10, STRESS PERIOD     18
 UBUDSVU SAVING "CLN MASS STORAGE" ON UNIT 145 AT TIME STEP     10, STRESS PERIOD     18
 UBUDSVU SAVING "CNST H MASS FLUX" ON UNIT 145 AT TIME STEP     10, STRESS PERIOD     18
 UBUDSVU SAVING "  WELL MASS FLUX" ON UNIT 145 AT TIME STEP     10, STRESS PERIOD     18

 TRANSPORT SOLUTION COMPLETE FOR ALL SPECIES, SORTING OUTPUT FOR CONCENTRATIONS AND MASS BALANCE
 ----------------------------------------------------------------------------------------------------
     TRANSPORT OUTPUT FOR COMPONENT SPECIES NUMBER    1
     ------------------------------------------------------------

 CONC WILL BE SAVED ON UNIT  132 AT END OF TIME STEP       10, STRESS PERIOD       18

 CLN CONC WILL BE SAVED ON UNIT  188 AT END OF TIME STEP  10, STRESS PERIOD   18
1
  VOLUMETRIC BUDGET FOR ENTIRE MODEL AT END OF TIME STEP      10 IN STRESS PERIOD      18
  ---------------------------------------------------------------------------------------

     CUMULATIVE VOLUMES      L**3       RATES FOR THIS TIME STEP      L**3/T
     ------------------                 ------------------------

           IN:                                      IN:
           ---                                      ---
        MASS STORAGE =         270.0000          MASS STORAGE =           0.5000
    CNST H MASS FLUX =           0.0000      CNST H MASS FLUX =           0.0000
      WELL MASS FLUX =           0.0000        WELL MASS FLUX =           0.0000

            TOTAL IN =         270.0000              TOTAL IN =           0.5000

          OUT:                                     OUT:
          ----                                     ----
        MASS STORAGE =           0.2827          MASS STORAGE =       1.3729E-10
    CNST H MASS FLUX =           0.0000      CNST H MASS FLUX =           0.0000
      WELL MASS FLUX =         269.7173        WELL MASS FLUX =           0.5000

           TOTAL OUT =         270.0000             TOTAL OUT =           0.5000

            IN - OUT =       4.4514E-10              IN - OUT =      -1.3729E-10

 PERCENT DISCREPANCY =           0.00     PERCENT DISCREPANCY =          -0.00






          TIME SUMMARY AT END OF TIME STEP        10 IN STRESS PERIOD        18
                    SECONDS     MINUTES      HOURS       DAYS        YEARS
                    -----------------------------------------------------------
   TIME STEP LENGTH 5.15209E+05  8586.8      143.11      5.9631     1.63260E-02
 STRESS PERIOD TIME 2.59200E+06  43200.      720.00      30.000     8.21355E-02
         TOTAL TIME 4.66560E+07 7.77600E+05  12960.      540.00      1.4784    
1
1
                            STRESS PERIOD NO.   19, LENGTH =   30.00000    
                            -----------------------------------------------

                              NUMBER OF TIME STEPS =        10

                               MULTIPLIER FOR DELT =     1.200

                            INITIAL TIME STEP SIZE =   1.155682    

 WEL -- WELL PACKAGE, VERSION 7, 5/2/2005 INPUT READ FROM UNIT   12

 WELL NO.  CLN-NODE       STRESS FACTOR         C01             
 ---------------------------------------------------------------
        1            3      -5.000           0.000           0.000    

      1 WELL 
 -------------------------------------------------------------------------------------
 
 SOLVING FOR HEAD 

 Outer-Iteration  Inner-Iteration  Backtracking  Number of        Incoming       Outgoing  Maximum HeadChange      Maximum Head Change
     Number           Count           Flag       Backtracks       Residual       Residual           Value              Location
        1                             0             0          0.347262E-01     0.347262E-01
        1                5                                                                       -0.497490E-01               400           GWF-node number
        1                5                                                                       -0.472486E-01                 2           CLN-node number
        2                             0             0          0.416127E-08     0.416127E-08
        2                1                                                                       -0.314144E-08               190           GWF-node number
        2                1                                                                       -0.775024E-08                 3           CLN-node number


     2 CALLS TO SPARSE MATRIX SOLVER PACKAGE  IN FLOW TIME STEP       1 STRESS PERIOD      19

 TOTAL OF       2OUTER ITERATIONS
  MAXIMUM CHANGE FOR EACH ITERATION:
   MAX. CHANGE        NODE  MAX. CHANGE        NODE  MAX. CHANGE        NODE  MAX. CHANGE        NODE  MAX. CHANGE        NODE
 ------------------------------------------------------------------------------------------------------------------------------------
  -0.49749E-01,        400 -0.31414E-08,        190

  MAXIMUM CHANGE FOR CLN NODE AT EACH ITERATION:
   MAX. CHANGE    CLN-CELL  MAX. CHANGE    CLN-CELL  MAX. CHANGE    CLN-CELL  MAX. CHANGE    CLN-CELL  MAX. CHANGE    CLN-CELL
 ------------------------------------------------------------------------------------------------------------------------------------
  -0.47249E-01,          2 -0.77502E-08,          3

 HEAD/DRAWDOWN PRINTOUT FLAG = 1     TOTAL BUDGET PRINTOUT FLAG = 1
 CELL-BY-CELL FLOW TERM FLAG = 1
 CONCENTRATION PRINTOUT FLAG = 1

 OUTPUT FLAGS FOR ALL LAYERS ARE THE SAME:
   HEAD    DRAWDOWN  HEAD  DRAWDOWN    CONC    CONC
 PRINTOUT  PRINTOUT  SAVE    SAVE    PRINTOUT  SAVE
 ---------------------------------------------------
     0         0       1       1       0       1
 UBUDSVU SAVING "         STORAGE" ON UNIT  50 AT TIME STEP      1, STRESS PERIOD     19
 UBUDSV SAVING "     CLN STORAGE" ON UNIT 144 AT TIME STEP      1, STRESS PERIOD      19
 UBUDSVU SAVING "   CONSTANT HEAD" ON UNIT  50 AT TIME STEP      1, STRESS PERIOD     19
 UBUDSVU SAVING "   FLOW JA FACE " ON UNIT  50 AT TIME STEP      1, STRESS PERIOD     19
 UBUDSVU SAVING "             CLN" ON UNIT  50 AT TIME STEP      1, STRESS PERIOD     19
 UBUDSVU SAVING "  CLN CONST HEAD" ON UNIT 144 AT TIME STEP      1, STRESS PERIOD     19
 UBUDSVU SAVING "   FLOW CLN FACE" ON UNIT 144 AT TIME STEP      1, STRESS PERIOD     19
 UBUDSVU SAVING "             GWF" ON UNIT 144 AT TIME STEP      1, STRESS PERIOD     19
 UBUDSVU SAVING "           WELLS" ON UNIT  50 AT TIME STEP      1, STRESS PERIOD     19
 UBUDSVU SAVING "           WELLS" ON UNIT 144 AT TIME STEP      1, STRESS PERIOD     19

 HEAD WILL BE SAVED ON UNIT       30 AT END OF TIME STEP        1, STRESS PERIOD       19

 DRAWDOWN WILL BE SAVED ON UNIT   31 AT END OF TIME STEP   1, STRESS PERIOD   19

 CLN HEAD WILL BE SAVED ON UNIT   77 AT END OF TIME STEP   1, STRESS PERIOD   19
1
  VOLUMETRIC BUDGET FOR ENTIRE MODEL AT END OF TIME STEP       1 IN STRESS PERIOD      19
  ---------------------------------------------------------------------------------------

     CUMULATIVE VOLUMES      L**3       RATES FOR THIS TIME STEP      L**3/T
     ------------------                 ------------------------

           IN:                                      IN:
           ---                                      ---
             STORAGE =        2705.3568               STORAGE =           4.9971
         CLN STORAGE =           0.4216           CLN STORAGE =       2.8899E-03
       CONSTANT HEAD =           0.0000         CONSTANT HEAD =           0.0000
      CLN CONST HEAD =           0.0000        CLN CONST HEAD =           0.0000
               WELLS =           0.0000                 WELLS =           0.0000

            TOTAL IN =        2705.7783              TOTAL IN =           5.0000

          OUT:                                     OUT:
          ----                                     ----
             STORAGE =           0.0000               STORAGE =           0.0000
         CLN STORAGE =           0.0000           CLN STORAGE =           0.0000
       CONSTANT HEAD =           0.0000         CONSTANT HEAD =           0.0000
      CLN CONST HEAD =           0.0000        CLN CONST HEAD =           0.0000
               WELLS =        2705.7783                 WELLS =           5.0000

           TOTAL OUT =        2705.7783             TOTAL OUT =           5.0000

            IN - OUT =       2.1983E-05              IN - OUT =       4.9117E-08

 PERCENT DISCREPANCY =           0.00     PERCENT DISCREPANCY =           0.00






          TIME SUMMARY AT END OF TIME STEP         1 IN STRESS PERIOD        19
                    SECONDS     MINUTES      HOURS       DAYS        YEARS
                    -----------------------------------------------------------
   TIME STEP LENGTH  99851.      1664.2      27.736      1.1557     3.16409E-03
 STRESS PERIOD TIME  99851.      1664.2      27.736      1.1557     3.16409E-03
         TOTAL TIME 4.67558E+07 7.79264E+05  12988.      541.16      1.4816    
1
 ------------------------------------------------------------------------------------------------------------
 
 SOLVING FOR TRANSPORT 

 ------------------------------------------------------------------------------------------------------------------------
     1 CALLS TO SPARSE MATRIX SOLVER PACKAGE IN TRANSPORT TIME STEP       1 STRESS PERIOD      19 SPECIES  1

 TOTAL OF       1OUTER ITERATIONS
  MAXIMUM CHANGE FOR EACH ITERATION:
   MAX. CHANGE        NODE  MAX. CHANGE        NODE  MAX. CHANGE        NODE  MAX. CHANGE        NODE  MAX. CHANGE        NODE
 ------------------------------------------------------------------------------------------------------------------------------------
  -0.39825E-11,        191

  MAXIMUM CHANGE FOR CLN NODE AT EACH ITERATION:
   MAX. CHANGE    CLN-CELL  MAX. CHANGE    CLN-CELL  MAX. CHANGE    CLN-CELL  MAX. CHANGE    CLN-CELL  MAX. CHANGE    CLN-CELL
 ------------------------------------------------------------------------------------------------------------------------------------
   0.89724E-09,          2
     TRANSPORT SOLUTION COMPLETE FOR COMPONENT SPECIES NUMBER    1
     ------------------------------------------------------------
 UBUDSVU SAVING "    MASS STORAGE" ON UNIT 145 AT TIME STEP      1, STRESS PERIOD     19
 UBUDSVU SAVING "CLN MASS STORAGE" ON UNIT 145 AT TIME STEP      1, STRESS PERIOD     19
 UBUDSVU SAVING "CNST H MASS FLUX" ON UNIT 145 AT TIME STEP      1, STRESS PERIOD     19
 UBUDSVU SAVING "  WELL MASS FLUX" ON UNIT 145 AT TIME STEP      1, STRESS PERIOD     19

 TRANSPORT SOLUTION COMPLETE FOR ALL SPECIES, SORTING OUTPUT FOR CONCENTRATIONS AND MASS BALANCE
 ----------------------------------------------------------------------------------------------------
     TRANSPORT OUTPUT FOR COMPONENT SPECIES NUMBER    1
     ------------------------------------------------------------

 CONC WILL BE SAVED ON UNIT  132 AT END OF TIME STEP        1, STRESS PERIOD       19

 CLN CONC WILL BE SAVED ON UNIT  188 AT END OF TIME STEP   1, STRESS PERIOD   19
1
  VOLUMETRIC BUDGET FOR ENTIRE MODEL AT END OF TIME STEP       1 IN STRESS PERIOD      19
  ---------------------------------------------------------------------------------------

     CUMULATIVE VOLUMES      L**3       RATES FOR THIS TIME STEP      L**3/T
     ------------------                 ------------------------

           IN:                                      IN:
           ---                                      ---
        MASS STORAGE =         270.5778          MASS STORAGE =           0.5000
    CNST H MASS FLUX =           0.0000      CNST H MASS FLUX =           0.0000
      WELL MASS FLUX =           0.0000        WELL MASS FLUX =           0.0000

            TOTAL IN =         270.5778              TOTAL IN =           0.5000

          OUT:                                     OUT:
          ----                                     ----
        MASS STORAGE =           0.2827          MASS STORAGE =       8.8562E-10
    CNST H MASS FLUX =           0.0000      CNST H MASS FLUX =           0.0000
      WELL MASS FLUX =         270.2951        WELL MASS FLUX =           0.5000

           TOTAL OUT =         270.5778             TOTAL OUT =           0.5000

            IN - OUT =       4.4497E-10              IN - OUT =      -8.8562E-10

 PERCENT DISCREPANCY =           0.00     PERCENT DISCREPANCY =          -0.00






          TIME SUMMARY AT END OF TIME STEP         1 IN STRESS PERIOD        19
                    SECONDS     MINUTES      HOURS       DAYS        YEARS
                    -----------------------------------------------------------
   TIME STEP LENGTH  99851.      1664.2      27.736      1.1557     3.16409E-03
 STRESS PERIOD TIME  99851.      1664.2      27.736      1.1557     3.16409E-03
         TOTAL TIME 4.67558E+07 7.79264E+05  12988.      541.16      1.4816    
1
 -------------------------------------------------------------------------------------
 
 SOLVING FOR HEAD 

 Outer-Iteration  Inner-Iteration  Backtracking  Number of        Incoming       Outgoing  Maximum HeadChange      Maximum Head Change
     Number           Count           Flag       Backtracks       Residual       Residual           Value              Location
        1                             0             0          0.347111E-01     0.347111E-01
        1                5                                                                       -0.596672E-01               400           GWF-node number
        1                5                                                                       -0.566722E-01                 2           CLN-node number
        2                             0             0          0.872979E-08     0.872979E-08
        2                1                                                                        0.405524E-07               190           GWF-node number
        2                1                                                                        0.114388E-06                 1           CLN-node number
     2 CALLS TO SPARSE MATRIX SOLVER PACKAGE  IN FLOW TIME STEP       2 STRESS PERIOD      19

 TOTAL OF       2OUTER ITERATIONS
  MAXIMUM CHANGE FOR EACH ITERATION:
   MAX. CHANGE        NODE  MAX. CHANGE        NODE  MAX. CHANGE        NODE  MAX. CHANGE        NODE  MAX. CHANGE        NODE
 ------------------------------------------------------------------------------------------------------------------------------------
  -0.59667E-01,        400  0.40552E-07,        190

  MAXIMUM CHANGE FOR CLN NODE AT EACH ITERATION:
   MAX. CHANGE    CLN-CELL  MAX. CHANGE    CLN-CELL  MAX. CHANGE    CLN-CELL  MAX. CHANGE    CLN-CELL  MAX. CHANGE    CLN-CELL
 ------------------------------------------------------------------------------------------------------------------------------------
  -0.56672E-01,          2  0.11439E-06,          1

 HEAD/DRAWDOWN PRINTOUT FLAG = 1     TOTAL BUDGET PRINTOUT FLAG = 1
 CELL-BY-CELL FLOW TERM FLAG = 1
 CONCENTRATION PRINTOUT FLAG = 1

 OUTPUT FLAGS FOR ALL LAYERS ARE THE SAME:
   HEAD    DRAWDOWN  HEAD  DRAWDOWN    CONC    CONC
 PRINTOUT  PRINTOUT  SAVE    SAVE    PRINTOUT  SAVE
 ---------------------------------------------------
     0         0       1       1       0       1
 UBUDSVU SAVING "         STORAGE" ON UNIT  50 AT TIME STEP      2, STRESS PERIOD     19
 UBUDSV SAVING "     CLN STORAGE" ON UNIT 144 AT TIME STEP      2, STRESS PERIOD      19
 UBUDSVU SAVING "   CONSTANT HEAD" ON UNIT  50 AT TIME STEP      2, STRESS PERIOD     19
 UBUDSVU SAVING "   FLOW JA FACE " ON UNIT  50 AT TIME STEP      2, STRESS PERIOD     19
 UBUDSVU SAVING "             CLN" ON UNIT  50 AT TIME STEP      2, STRESS PERIOD     19
 UBUDSVU SAVING "  CLN CONST HEAD" ON UNIT 144 AT TIME STEP      2, STRESS PERIOD     19
 UBUDSVU SAVING "   FLOW CLN FACE" ON UNIT 144 AT TIME STEP      2, STRESS PERIOD     19
 UBUDSVU SAVING "             GWF" ON UNIT 144 AT TIME STEP      2, STRESS PERIOD     19
 UBUDSVU SAVING "           WELLS" ON UNIT  50 AT TIME STEP      2, STRESS PERIOD     19
 UBUDSVU SAVING "           WELLS" ON UNIT 144 AT TIME STEP      2, STRESS PERIOD     19

 HEAD WILL BE SAVED ON UNIT       30 AT END OF TIME STEP        2, STRESS PERIOD       19

 DRAWDOWN WILL BE SAVED ON UNIT   31 AT END OF TIME STEP   2, STRESS PERIOD   19

 CLN HEAD WILL BE SAVED ON UNIT   77 AT END OF TIME STEP   2, STRESS PERIOD   19
1
  VOLUMETRIC BUDGET FOR ENTIRE MODEL AT END OF TIME STEP       2 IN STRESS PERIOD      19
  ---------------------------------------------------------------------------------------

     CUMULATIVE VOLUMES      L**3       RATES FOR THIS TIME STEP      L**3/T
     ------------------                 ------------------------

           IN:                                      IN:
           ---                                      ---
             STORAGE =        2712.2869               STORAGE =           4.9971
         CLN STORAGE =           0.4256           CLN STORAGE =       2.8886E-03
       CONSTANT HEAD =           0.0000         CONSTANT HEAD =           0.0000
      CLN CONST HEAD =           0.0000        CLN CONST HEAD =           0.0000
               WELLS =           0.0000                 WELLS =           0.0000

            TOTAL IN =        2712.7124              TOTAL IN =           5.0000

          OUT:                                     OUT:
          ----                                     ----
             STORAGE =           0.0000               STORAGE =           0.0000
         CLN STORAGE =           0.0000           CLN STORAGE =           0.0000
       CONSTANT HEAD =           0.0000         CONSTANT HEAD =           0.0000
      CLN CONST HEAD =           0.0000        CLN CONST HEAD =           0.0000
               WELLS =        2712.7124                 WELLS =           5.0000

           TOTAL OUT =        2712.7124             TOTAL OUT =           5.0000

            IN - OUT =       2.1985E-05              IN - OUT =       1.7322E-09

 PERCENT DISCREPANCY =           0.00     PERCENT DISCREPANCY =           0.00






          TIME SUMMARY AT END OF TIME STEP         2 IN STRESS PERIOD        19
                    SECONDS     MINUTES      HOURS       DAYS        YEARS
                    -----------------------------------------------------------
   TIME STEP LENGTH 1.19821E+05  1997.0      33.284      1.3868     3.79690E-03
 STRESS PERIOD TIME 2.19672E+05  3661.2      61.020      2.5425     6.96099E-03
         TOTAL TIME 4.68757E+07 7.81261E+05  13021.      542.54      1.4854    
1
 ------------------------------------------------------------------------------------------------------------
 
 SOLVING FOR TRANSPORT 

 ------------------------------------------------------------------------------------------------------------------------
     1 CALLS TO SPARSE MATRIX SOLVER PACKAGE IN TRANSPORT TIME STEP       2 STRESS PERIOD      19 SPECIES  1

 TOTAL OF       1OUTER ITERATIONS
  MAXIMUM CHANGE FOR EACH ITERATION:
   MAX. CHANGE        NODE  MAX. CHANGE        NODE  MAX. CHANGE        NODE  MAX. CHANGE        NODE  MAX. CHANGE        NODE
 ------------------------------------------------------------------------------------------------------------------------------------
   0.16752E-11,        210

  MAXIMUM CHANGE FOR CLN NODE AT EACH ITERATION:
   MAX. CHANGE    CLN-CELL  MAX. CHANGE    CLN-CELL  MAX. CHANGE    CLN-CELL  MAX. CHANGE    CLN-CELL  MAX. CHANGE    CLN-CELL
 ------------------------------------------------------------------------------------------------------------------------------------
  -0.12136E-08,          2
     TRANSPORT SOLUTION COMPLETE FOR COMPONENT SPECIES NUMBER    1
     ------------------------------------------------------------
 UBUDSVU SAVING "    MASS STORAGE" ON UNIT 145 AT TIME STEP      2, STRESS PERIOD     19
 UBUDSVU SAVING "CLN MASS STORAGE" ON UNIT 145 AT TIME STEP      2, STRESS PERIOD     19
 UBUDSVU SAVING "CNST H MASS FLUX" ON UNIT 145 AT TIME STEP      2, STRESS PERIOD     19
 UBUDSVU SAVING "  WELL MASS FLUX" ON UNIT 145 AT TIME STEP      2, STRESS PERIOD     19

 TRANSPORT SOLUTION COMPLETE FOR ALL SPECIES, SORTING OUTPUT FOR CONCENTRATIONS AND MASS BALANCE
 ----------------------------------------------------------------------------------------------------
     TRANSPORT OUTPUT FOR COMPONENT SPECIES NUMBER    1
     ------------------------------------------------------------

 CONC WILL BE SAVED ON UNIT  132 AT END OF TIME STEP        2, STRESS PERIOD       19

 CLN CONC WILL BE SAVED ON UNIT  188 AT END OF TIME STEP   2, STRESS PERIOD   19
1
  VOLUMETRIC BUDGET FOR ENTIRE MODEL AT END OF TIME STEP       2 IN STRESS PERIOD      19
  ---------------------------------------------------------------------------------------

     CUMULATIVE VOLUMES      L**3       RATES FOR THIS TIME STEP      L**3/T
     ------------------                 ------------------------

           IN:                                      IN:
           ---                                      ---
        MASS STORAGE =         271.2713          MASS STORAGE =           0.5000
    CNST H MASS FLUX =           0.0000      CNST H MASS FLUX =           0.0000
      WELL MASS FLUX =           0.0000        WELL MASS FLUX =           0.0000

            TOTAL IN =         271.2713              TOTAL IN =           0.5000

          OUT:                                     OUT:
          ----                                     ----
        MASS STORAGE =           0.2827          MASS STORAGE =           0.0000
    CNST H MASS FLUX =           0.0000      CNST H MASS FLUX =           0.0000
      WELL MASS FLUX =         270.9885        WELL MASS FLUX =           0.5000

           TOTAL OUT =         271.2713             TOTAL OUT =           0.5000

            IN - OUT =       4.4508E-10              IN - OUT =           0.0000

 PERCENT DISCREPANCY =           0.00     PERCENT DISCREPANCY =           0.00






          TIME SUMMARY AT END OF TIME STEP         2 IN STRESS PERIOD        19
                    SECONDS     MINUTES      HOURS       DAYS        YEARS
                    -----------------------------------------------------------
   TIME STEP LENGTH 1.19821E+05  1997.0      33.284      1.3868     3.79690E-03
 STRESS PERIOD TIME 2.19672E+05  3661.2      61.020      2.5425     6.96099E-03
         TOTAL TIME 4.68757E+07 7.81261E+05  13021.      542.54      1.4854    
1
 -------------------------------------------------------------------------------------
 
 SOLVING FOR HEAD 

 Outer-Iteration  Inner-Iteration  Backtracking  Number of        Incoming       Outgoing  Maximum HeadChange      Maximum Head Change
     Number           Count           Flag       Backtracks       Residual       Residual           Value              Location
        1                             0             0          0.346929E-01     0.346929E-01
        1                5                                                                       -0.715552E-01               400           GWF-node number
        1                5                                                                       -0.679695E-01                 3           CLN-node number
        2                             0             0          0.183336E-07     0.183336E-07
        2                1                                                                       -0.144296E-07               406           GWF-node number
        2                1                                                                        0.344322E-07                 1           CLN-node number
     2 CALLS TO SPARSE MATRIX SOLVER PACKAGE  IN FLOW TIME STEP       3 STRESS PERIOD      19

 TOTAL OF       2OUTER ITERATIONS
  MAXIMUM CHANGE FOR EACH ITERATION:
   MAX. CHANGE        NODE  MAX. CHANGE        NODE  MAX. CHANGE        NODE  MAX. CHANGE        NODE  MAX. CHANGE        NODE
 ------------------------------------------------------------------------------------------------------------------------------------
  -0.71555E-01,        400 -0.14430E-07,        406

  MAXIMUM CHANGE FOR CLN NODE AT EACH ITERATION:
   MAX. CHANGE    CLN-CELL  MAX. CHANGE    CLN-CELL  MAX. CHANGE    CLN-CELL  MAX. CHANGE    CLN-CELL  MAX. CHANGE    CLN-CELL
 ------------------------------------------------------------------------------------------------------------------------------------
  -0.67969E-01,          3  0.34432E-07,          1

 HEAD/DRAWDOWN PRINTOUT FLAG = 1     TOTAL BUDGET PRINTOUT FLAG = 1
 CELL-BY-CELL FLOW TERM FLAG = 1
 CONCENTRATION PRINTOUT FLAG = 1

 OUTPUT FLAGS FOR ALL LAYERS ARE THE SAME:
   HEAD    DRAWDOWN  HEAD  DRAWDOWN    CONC    CONC
 PRINTOUT  PRINTOUT  SAVE    SAVE    PRINTOUT  SAVE
 ---------------------------------------------------
     0         0       1       1       0       1
 UBUDSVU SAVING "         STORAGE" ON UNIT  50 AT TIME STEP      3, STRESS PERIOD     19
 UBUDSV SAVING "     CLN STORAGE" ON UNIT 144 AT TIME STEP      3, STRESS PERIOD      19
 UBUDSVU SAVING "   CONSTANT HEAD" ON UNIT  50 AT TIME STEP      3, STRESS PERIOD     19
 UBUDSVU SAVING "   FLOW JA FACE " ON UNIT  50 AT TIME STEP      3, STRESS PERIOD     19
 UBUDSVU SAVING "             CLN" ON UNIT  50 AT TIME STEP      3, STRESS PERIOD     19
 UBUDSVU SAVING "  CLN CONST HEAD" ON UNIT 144 AT TIME STEP      3, STRESS PERIOD     19
 UBUDSVU SAVING "   FLOW CLN FACE" ON UNIT 144 AT TIME STEP      3, STRESS PERIOD     19
 UBUDSVU SAVING "             GWF" ON UNIT 144 AT TIME STEP      3, STRESS PERIOD     19
 UBUDSVU SAVING "           WELLS" ON UNIT  50 AT TIME STEP      3, STRESS PERIOD     19
 UBUDSVU SAVING "           WELLS" ON UNIT 144 AT TIME STEP      3, STRESS PERIOD     19

 HEAD WILL BE SAVED ON UNIT       30 AT END OF TIME STEP        3, STRESS PERIOD       19

 DRAWDOWN WILL BE SAVED ON UNIT   31 AT END OF TIME STEP   3, STRESS PERIOD   19

 CLN HEAD WILL BE SAVED ON UNIT   77 AT END OF TIME STEP   3, STRESS PERIOD   19
1
  VOLUMETRIC BUDGET FOR ENTIRE MODEL AT END OF TIME STEP       3 IN STRESS PERIOD      19
  ---------------------------------------------------------------------------------------

     CUMULATIVE VOLUMES      L**3       RATES FOR THIS TIME STEP      L**3/T
     ------------------                 ------------------------

           IN:                                      IN:
           ---                                      ---
             STORAGE =        2720.6030               STORAGE =           4.9971
         CLN STORAGE =           0.4304           CLN STORAGE =       2.8870E-03
       CONSTANT HEAD =           0.0000         CONSTANT HEAD =           0.0000
      CLN CONST HEAD =           0.0000        CLN CONST HEAD =           0.0000
               WELLS =           0.0000                 WELLS =           0.0000

            TOTAL IN =        2721.0333              TOTAL IN =           5.0000

          OUT:                                     OUT:
          ----                                     ----
             STORAGE =           0.0000               STORAGE =           0.0000
         CLN STORAGE =           0.0000           CLN STORAGE =           0.0000
       CONSTANT HEAD =           0.0000         CONSTANT HEAD =           0.0000
      CLN CONST HEAD =           0.0000        CLN CONST HEAD =           0.0000
               WELLS =        2721.0333                 WELLS =           5.0000

           TOTAL OUT =        2721.0333             TOTAL OUT =           5.0000

            IN - OUT =       2.1960E-05              IN - OUT =      -1.5219E-08

 PERCENT DISCREPANCY =           0.00     PERCENT DISCREPANCY =          -0.00






          TIME SUMMARY AT END OF TIME STEP         3 IN STRESS PERIOD        19
                    SECONDS     MINUTES      HOURS       DAYS        YEARS
                    -----------------------------------------------------------
   TIME STEP LENGTH 1.43785E+05  2396.4      39.940      1.6642     4.55628E-03
 STRESS PERIOD TIME 3.63458E+05  6057.6      100.96      4.2067     1.15173E-02
         TOTAL TIME 4.70195E+07 7.83658E+05  13061.      544.21      1.4900    
1
 ------------------------------------------------------------------------------------------------------------
 
 SOLVING FOR TRANSPORT 

 ------------------------------------------------------------------------------------------------------------------------
     1 CALLS TO SPARSE MATRIX SOLVER PACKAGE IN TRANSPORT TIME STEP       3 STRESS PERIOD      19 SPECIES  1

 TOTAL OF       1OUTER ITERATIONS
  MAXIMUM CHANGE FOR EACH ITERATION:
   MAX. CHANGE        NODE  MAX. CHANGE        NODE  MAX. CHANGE        NODE  MAX. CHANGE        NODE  MAX. CHANGE        NODE
 ------------------------------------------------------------------------------------------------------------------------------------
  -0.30541E-11,        191

  MAXIMUM CHANGE FOR CLN NODE AT EACH ITERATION:
   MAX. CHANGE    CLN-CELL  MAX. CHANGE    CLN-CELL  MAX. CHANGE    CLN-CELL  MAX. CHANGE    CLN-CELL  MAX. CHANGE    CLN-CELL
 ------------------------------------------------------------------------------------------------------------------------------------
  -0.44139E-09,          1
     TRANSPORT SOLUTION COMPLETE FOR COMPONENT SPECIES NUMBER    1
     ------------------------------------------------------------
 UBUDSVU SAVING "    MASS STORAGE" ON UNIT 145 AT TIME STEP      3, STRESS PERIOD     19
 UBUDSVU SAVING "CLN MASS STORAGE" ON UNIT 145 AT TIME STEP      3, STRESS PERIOD     19
 UBUDSVU SAVING "CNST H MASS FLUX" ON UNIT 145 AT TIME STEP      3, STRESS PERIOD     19
 UBUDSVU SAVING "  WELL MASS FLUX" ON UNIT 145 AT TIME STEP      3, STRESS PERIOD     19

 TRANSPORT SOLUTION COMPLETE FOR ALL SPECIES, SORTING OUTPUT FOR CONCENTRATIONS AND MASS BALANCE
 ----------------------------------------------------------------------------------------------------
     TRANSPORT OUTPUT FOR COMPONENT SPECIES NUMBER    1
     ------------------------------------------------------------

 CONC WILL BE SAVED ON UNIT  132 AT END OF TIME STEP        3, STRESS PERIOD       19

 CLN CONC WILL BE SAVED ON UNIT  188 AT END OF TIME STEP   3, STRESS PERIOD   19
1
  VOLUMETRIC BUDGET FOR ENTIRE MODEL AT END OF TIME STEP       3 IN STRESS PERIOD      19
  ---------------------------------------------------------------------------------------

     CUMULATIVE VOLUMES      L**3       RATES FOR THIS TIME STEP      L**3/T
     ------------------                 ------------------------

           IN:                                      IN:
           ---                                      ---
        MASS STORAGE =         272.1033          MASS STORAGE =           0.5000
    CNST H MASS FLUX =           0.0000      CNST H MASS FLUX =           0.0000
      WELL MASS FLUX =           0.0000        WELL MASS FLUX =           0.0000

            TOTAL IN =         272.1033              TOTAL IN =           0.5000

          OUT:                                     OUT:
          ----                                     ----
        MASS STORAGE =           0.2827          MASS STORAGE =           0.0000
    CNST H MASS FLUX =           0.0000      CNST H MASS FLUX =           0.0000
      WELL MASS FLUX =         271.8206        WELL MASS FLUX =           0.5000

           TOTAL OUT =         272.1033             TOTAL OUT =           0.5000

            IN - OUT =       4.4474E-10              IN - OUT =           0.0000

 PERCENT DISCREPANCY =           0.00     PERCENT DISCREPANCY =           0.00






          TIME SUMMARY AT END OF TIME STEP         3 IN STRESS PERIOD        19
                    SECONDS     MINUTES      HOURS       DAYS        YEARS
                    -----------------------------------------------------------
   TIME STEP LENGTH 1.43785E+05  2396.4      39.940      1.6642     4.55628E-03
 STRESS PERIOD TIME 3.63458E+05  6057.6      100.96      4.2067     1.15173E-02
         TOTAL TIME 4.70195E+07 7.83658E+05  13061.      544.21      1.4900    
1
 -------------------------------------------------------------------------------------
 
 SOLVING FOR HEAD 

 Outer-Iteration  Inner-Iteration  Backtracking  Number of        Incoming       Outgoing  Maximum HeadChange      Maximum Head Change
     Number           Count           Flag       Backtracks       Residual       Residual           Value              Location
        1                             0             0          0.346713E-01     0.346713E-01
        1                5                                                                       -0.858010E-01               400           GWF-node number
        1                5                                                                       -0.815098E-01                 3           CLN-node number
        2                             0             0          0.386974E-07     0.386974E-07
        2                1                                                                       -0.137321E-06               190           GWF-node number
        2                1                                                                       -0.312110E-06                 3           CLN-node number
     2 CALLS TO SPARSE MATRIX SOLVER PACKAGE  IN FLOW TIME STEP       4 STRESS PERIOD      19

 TOTAL OF       2OUTER ITERATIONS
  MAXIMUM CHANGE FOR EACH ITERATION:
   MAX. CHANGE        NODE  MAX. CHANGE        NODE  MAX. CHANGE        NODE  MAX. CHANGE        NODE  MAX. CHANGE        NODE
 ------------------------------------------------------------------------------------------------------------------------------------
  -0.85801E-01,        400 -0.13732E-06,        190

  MAXIMUM CHANGE FOR CLN NODE AT EACH ITERATION:
   MAX. CHANGE    CLN-CELL  MAX. CHANGE    CLN-CELL  MAX. CHANGE    CLN-CELL  MAX. CHANGE    CLN-CELL  MAX. CHANGE    CLN-CELL
 ------------------------------------------------------------------------------------------------------------------------------------
  -0.81510E-01,          3 -0.31211E-06,          3

 HEAD/DRAWDOWN PRINTOUT FLAG = 1     TOTAL BUDGET PRINTOUT FLAG = 1
 CELL-BY-CELL FLOW TERM FLAG = 1
 CONCENTRATION PRINTOUT FLAG = 1

 OUTPUT FLAGS FOR ALL LAYERS ARE THE SAME:
   HEAD    DRAWDOWN  HEAD  DRAWDOWN    CONC    CONC
 PRINTOUT  PRINTOUT  SAVE    SAVE    PRINTOUT  SAVE
 ---------------------------------------------------
     0         0       1       1       0       1
 UBUDSVU SAVING "         STORAGE" ON UNIT  50 AT TIME STEP      4, STRESS PERIOD     19
 UBUDSV SAVING "     CLN STORAGE" ON UNIT 144 AT TIME STEP      4, STRESS PERIOD      19
 UBUDSVU SAVING "   CONSTANT HEAD" ON UNIT  50 AT TIME STEP      4, STRESS PERIOD     19
 UBUDSVU SAVING "   FLOW JA FACE " ON UNIT  50 AT TIME STEP      4, STRESS PERIOD     19
 UBUDSVU SAVING "             CLN" ON UNIT  50 AT TIME STEP      4, STRESS PERIOD     19
 UBUDSVU SAVING "  CLN CONST HEAD" ON UNIT 144 AT TIME STEP      4, STRESS PERIOD     19
 UBUDSVU SAVING "   FLOW CLN FACE" ON UNIT 144 AT TIME STEP      4, STRESS PERIOD     19
 UBUDSVU SAVING "             GWF" ON UNIT 144 AT TIME STEP      4, STRESS PERIOD     19
 UBUDSVU SAVING "           WELLS" ON UNIT  50 AT TIME STEP      4, STRESS PERIOD     19
 UBUDSVU SAVING "           WELLS" ON UNIT 144 AT TIME STEP      4, STRESS PERIOD     19

 HEAD WILL BE SAVED ON UNIT       30 AT END OF TIME STEP        4, STRESS PERIOD       19

 DRAWDOWN WILL BE SAVED ON UNIT   31 AT END OF TIME STEP   4, STRESS PERIOD   19

 CLN HEAD WILL BE SAVED ON UNIT   77 AT END OF TIME STEP   4, STRESS PERIOD   19
1
  VOLUMETRIC BUDGET FOR ENTIRE MODEL AT END OF TIME STEP       4 IN STRESS PERIOD      19
  ---------------------------------------------------------------------------------------

     CUMULATIVE VOLUMES      L**3       RATES FOR THIS TIME STEP      L**3/T
     ------------------                 ------------------------

           IN:                                      IN:
           ---                                      ---
             STORAGE =        2730.5823               STORAGE =           4.9971
         CLN STORAGE =           0.4361           CLN STORAGE =       2.8851E-03
       CONSTANT HEAD =           0.0000         CONSTANT HEAD =           0.0000
      CLN CONST HEAD =           0.0000        CLN CONST HEAD =           0.0000
               WELLS =           0.0000                 WELLS =           0.0000

            TOTAL IN =        2731.0184              TOTAL IN =           5.0000

          OUT:                                     OUT:
          ----                                     ----
             STORAGE =           0.0000               STORAGE =           0.0000
         CLN STORAGE =           0.0000           CLN STORAGE =           0.0000
       CONSTANT HEAD =           0.0000         CONSTANT HEAD =           0.0000
      CLN CONST HEAD =           0.0000        CLN CONST HEAD =           0.0000
               WELLS =        2731.0184                 WELLS =           5.0000

           TOTAL OUT =        2731.0184             TOTAL OUT =           5.0000

            IN - OUT =       2.1965E-05              IN - OUT =       2.3479E-09

 PERCENT DISCREPANCY =           0.00     PERCENT DISCREPANCY =           0.00






          TIME SUMMARY AT END OF TIME STEP         4 IN STRESS PERIOD        19
                    SECONDS     MINUTES      HOURS       DAYS        YEARS
                    -----------------------------------------------------------
   TIME STEP LENGTH 1.72542E+05  2875.7      47.928      1.9970     5.46754E-03
 STRESS PERIOD TIME 5.36000E+05  8933.3      148.89      6.2037     1.69848E-02
         TOTAL TIME 4.71920E+07 7.86533E+05  13109.      546.20      1.4954    
1
 ------------------------------------------------------------------------------------------------------------
 
 SOLVING FOR TRANSPORT 

 ------------------------------------------------------------------------------------------------------------------------
     1 CALLS TO SPARSE MATRIX SOLVER PACKAGE IN TRANSPORT TIME STEP       4 STRESS PERIOD      19 SPECIES  1

 TOTAL OF       1OUTER ITERATIONS
  MAXIMUM CHANGE FOR EACH ITERATION:
   MAX. CHANGE        NODE  MAX. CHANGE        NODE  MAX. CHANGE        NODE  MAX. CHANGE        NODE  MAX. CHANGE        NODE
 ------------------------------------------------------------------------------------------------------------------------------------
  -0.30722E-10,        191

  MAXIMUM CHANGE FOR CLN NODE AT EACH ITERATION:
   MAX. CHANGE    CLN-CELL  MAX. CHANGE    CLN-CELL  MAX. CHANGE    CLN-CELL  MAX. CHANGE    CLN-CELL  MAX. CHANGE    CLN-CELL
 ------------------------------------------------------------------------------------------------------------------------------------
  -0.19741E-08,          1
     TRANSPORT SOLUTION COMPLETE FOR COMPONENT SPECIES NUMBER    1
     ------------------------------------------------------------
 UBUDSVU SAVING "    MASS STORAGE" ON UNIT 145 AT TIME STEP      4, STRESS PERIOD     19
 UBUDSVU SAVING "CLN MASS STORAGE" ON UNIT 145 AT TIME STEP      4, STRESS PERIOD     19
 UBUDSVU SAVING "CNST H MASS FLUX" ON UNIT 145 AT TIME STEP      4, STRESS PERIOD     19
 UBUDSVU SAVING "  WELL MASS FLUX" ON UNIT 145 AT TIME STEP      4, STRESS PERIOD     19

 TRANSPORT SOLUTION COMPLETE FOR ALL SPECIES, SORTING OUTPUT FOR CONCENTRATIONS AND MASS BALANCE
 ----------------------------------------------------------------------------------------------------
     TRANSPORT OUTPUT FOR COMPONENT SPECIES NUMBER    1
     ------------------------------------------------------------

 CONC WILL BE SAVED ON UNIT  132 AT END OF TIME STEP        4, STRESS PERIOD       19

 CLN CONC WILL BE SAVED ON UNIT  188 AT END OF TIME STEP   4, STRESS PERIOD   19
1
  VOLUMETRIC BUDGET FOR ENTIRE MODEL AT END OF TIME STEP       4 IN STRESS PERIOD      19
  ---------------------------------------------------------------------------------------

     CUMULATIVE VOLUMES      L**3       RATES FOR THIS TIME STEP      L**3/T
     ------------------                 ------------------------

           IN:                                      IN:
           ---                                      ---
        MASS STORAGE =         273.1019          MASS STORAGE =           0.5000
    CNST H MASS FLUX =           0.0000      CNST H MASS FLUX =           0.0000
      WELL MASS FLUX =           0.0000        WELL MASS FLUX =           0.0000

            TOTAL IN =         273.1019              TOTAL IN =           0.5000

          OUT:                                     OUT:
          ----                                     ----
        MASS STORAGE =           0.2827          MASS STORAGE =       1.0151E-09
    CNST H MASS FLUX =           0.0000      CNST H MASS FLUX =           0.0000
      WELL MASS FLUX =         272.8191        WELL MASS FLUX =           0.5000

           TOTAL OUT =         273.1019             TOTAL OUT =           0.5000

            IN - OUT =       4.3997E-10              IN - OUT =      -1.0151E-09

 PERCENT DISCREPANCY =           0.00     PERCENT DISCREPANCY =          -0.00






          TIME SUMMARY AT END OF TIME STEP         4 IN STRESS PERIOD        19
                    SECONDS     MINUTES      HOURS       DAYS        YEARS
                    -----------------------------------------------------------
   TIME STEP LENGTH 1.72542E+05  2875.7      47.928      1.9970     5.46754E-03
 STRESS PERIOD TIME 5.36000E+05  8933.3      148.89      6.2037     1.69848E-02
         TOTAL TIME 4.71920E+07 7.86533E+05  13109.      546.20      1.4954    
1
 -------------------------------------------------------------------------------------
 
 SOLVING FOR HEAD 

 Outer-Iteration  Inner-Iteration  Backtracking  Number of        Incoming       Outgoing  Maximum HeadChange      Maximum Head Change
     Number           Count           Flag       Backtracks       Residual       Residual           Value              Location
        1                             0             0          0.346455E-01     0.346455E-01
        1                6                                                                       -0.102868                   400           GWF-node number
        1                6                                                                       -0.977352E-01                 2           CLN-node number
        2                             0             0          0.818343E-07     0.818343E-07
        2                1                                                                        0.644639E-08               190           GWF-node number
        2                1                                                                        0.178995E-07                 1           CLN-node number
     2 CALLS TO SPARSE MATRIX SOLVER PACKAGE  IN FLOW TIME STEP       5 STRESS PERIOD      19

 TOTAL OF       2OUTER ITERATIONS
  MAXIMUM CHANGE FOR EACH ITERATION:
   MAX. CHANGE        NODE  MAX. CHANGE        NODE  MAX. CHANGE        NODE  MAX. CHANGE        NODE  MAX. CHANGE        NODE
 ------------------------------------------------------------------------------------------------------------------------------------
  -0.10287    ,        400  0.64464E-08,        190

  MAXIMUM CHANGE FOR CLN NODE AT EACH ITERATION:
   MAX. CHANGE    CLN-CELL  MAX. CHANGE    CLN-CELL  MAX. CHANGE    CLN-CELL  MAX. CHANGE    CLN-CELL  MAX. CHANGE    CLN-CELL
 ------------------------------------------------------------------------------------------------------------------------------------
  -0.97735E-01,          2  0.17900E-07,          1

 HEAD/DRAWDOWN PRINTOUT FLAG = 1     TOTAL BUDGET PRINTOUT FLAG = 1
 CELL-BY-CELL FLOW TERM FLAG = 1
 CONCENTRATION PRINTOUT FLAG = 1

 OUTPUT FLAGS FOR ALL LAYERS ARE THE SAME:
   HEAD    DRAWDOWN  HEAD  DRAWDOWN    CONC    CONC
 PRINTOUT  PRINTOUT  SAVE    SAVE    PRINTOUT  SAVE
 ---------------------------------------------------
     0         0       1       1       0       1
 UBUDSVU SAVING "         STORAGE" ON UNIT  50 AT TIME STEP      5, STRESS PERIOD     19
 UBUDSV SAVING "     CLN STORAGE" ON UNIT 144 AT TIME STEP      5, STRESS PERIOD      19
 UBUDSVU SAVING "   CONSTANT HEAD" ON UNIT  50 AT TIME STEP      5, STRESS PERIOD     19
 UBUDSVU SAVING "   FLOW JA FACE " ON UNIT  50 AT TIME STEP      5, STRESS PERIOD     19
 UBUDSVU SAVING "             CLN" ON UNIT  50 AT TIME STEP      5, STRESS PERIOD     19
 UBUDSVU SAVING "  CLN CONST HEAD" ON UNIT 144 AT TIME STEP      5, STRESS PERIOD     19
 UBUDSVU SAVING "   FLOW CLN FACE" ON UNIT 144 AT TIME STEP      5, STRESS PERIOD     19
 UBUDSVU SAVING "             GWF" ON UNIT 144 AT TIME STEP      5, STRESS PERIOD     19
 UBUDSVU SAVING "           WELLS" ON UNIT  50 AT TIME STEP      5, STRESS PERIOD     19
 UBUDSVU SAVING "           WELLS" ON UNIT 144 AT TIME STEP      5, STRESS PERIOD     19

 HEAD WILL BE SAVED ON UNIT       30 AT END OF TIME STEP        5, STRESS PERIOD       19

 DRAWDOWN WILL BE SAVED ON UNIT   31 AT END OF TIME STEP   5, STRESS PERIOD   19

 CLN HEAD WILL BE SAVED ON UNIT   77 AT END OF TIME STEP   5, STRESS PERIOD   19
1
  VOLUMETRIC BUDGET FOR ENTIRE MODEL AT END OF TIME STEP       5 IN STRESS PERIOD      19
  ---------------------------------------------------------------------------------------

     CUMULATIVE VOLUMES      L**3       RATES FOR THIS TIME STEP      L**3/T
     ------------------                 ------------------------

           IN:                                      IN:
           ---                                      ---
             STORAGE =        2742.5575               STORAGE =           4.9971
         CLN STORAGE =           0.4430           CLN STORAGE =       2.8828E-03
       CONSTANT HEAD =           0.0000         CONSTANT HEAD =           0.0000
      CLN CONST HEAD =           0.0000        CLN CONST HEAD =           0.0000
               WELLS =           0.0000                 WELLS =           0.0000

            TOTAL IN =        2743.0006              TOTAL IN =           5.0000

          OUT:                                     OUT:
          ----                                     ----
             STORAGE =           0.0000               STORAGE =           0.0000
         CLN STORAGE =           0.0000           CLN STORAGE =           0.0000
       CONSTANT HEAD =           0.0000         CONSTANT HEAD =           0.0000
      CLN CONST HEAD =           0.0000        CLN CONST HEAD =           0.0000
               WELLS =        2743.0005                 WELLS =           5.0000

           TOTAL OUT =        2743.0005             TOTAL OUT =           5.0000

            IN - OUT =       2.2080E-05              IN - OUT =       4.8085E-08

 PERCENT DISCREPANCY =           0.00     PERCENT DISCREPANCY =           0.00






          TIME SUMMARY AT END OF TIME STEP         5 IN STRESS PERIOD        19
                    SECONDS     MINUTES      HOURS       DAYS        YEARS
                    -----------------------------------------------------------
   TIME STEP LENGTH 2.07051E+05  3450.8      57.514      2.3964     6.56105E-03
 STRESS PERIOD TIME 7.43051E+05  12384.      206.40      8.6001     2.35459E-02
         TOTAL TIME 4.73990E+07 7.89984E+05  13166.      548.60      1.5020    
1
 ------------------------------------------------------------------------------------------------------------
 
 SOLVING FOR TRANSPORT 

 ------------------------------------------------------------------------------------------------------------------------
     1 CALLS TO SPARSE MATRIX SOLVER PACKAGE IN TRANSPORT TIME STEP       5 STRESS PERIOD      19 SPECIES  1

 TOTAL OF       1OUTER ITERATIONS
  MAXIMUM CHANGE FOR EACH ITERATION:
   MAX. CHANGE        NODE  MAX. CHANGE        NODE  MAX. CHANGE        NODE  MAX. CHANGE        NODE  MAX. CHANGE        NODE
 ------------------------------------------------------------------------------------------------------------------------------------
  -0.54075E-11,        191

  MAXIMUM CHANGE FOR CLN NODE AT EACH ITERATION:
   MAX. CHANGE    CLN-CELL  MAX. CHANGE    CLN-CELL  MAX. CHANGE    CLN-CELL  MAX. CHANGE    CLN-CELL  MAX. CHANGE    CLN-CELL
 ------------------------------------------------------------------------------------------------------------------------------------
   0.20824E-08,          1
     TRANSPORT SOLUTION COMPLETE FOR COMPONENT SPECIES NUMBER    1
     ------------------------------------------------------------
 UBUDSVU SAVING "    MASS STORAGE" ON UNIT 145 AT TIME STEP      5, STRESS PERIOD     19
 UBUDSVU SAVING "CLN MASS STORAGE" ON UNIT 145 AT TIME STEP      5, STRESS PERIOD     19
 UBUDSVU SAVING "CNST H MASS FLUX" ON UNIT 145 AT TIME STEP      5, STRESS PERIOD     19
 UBUDSVU SAVING "  WELL MASS FLUX" ON UNIT 145 AT TIME STEP      5, STRESS PERIOD     19

 TRANSPORT SOLUTION COMPLETE FOR ALL SPECIES, SORTING OUTPUT FOR CONCENTRATIONS AND MASS BALANCE
 ----------------------------------------------------------------------------------------------------
     TRANSPORT OUTPUT FOR COMPONENT SPECIES NUMBER    1
     ------------------------------------------------------------

 CONC WILL BE SAVED ON UNIT  132 AT END OF TIME STEP        5, STRESS PERIOD       19

 CLN CONC WILL BE SAVED ON UNIT  188 AT END OF TIME STEP   5, STRESS PERIOD   19
1
  VOLUMETRIC BUDGET FOR ENTIRE MODEL AT END OF TIME STEP       5 IN STRESS PERIOD      19
  ---------------------------------------------------------------------------------------

     CUMULATIVE VOLUMES      L**3       RATES FOR THIS TIME STEP      L**3/T
     ------------------                 ------------------------

           IN:                                      IN:
           ---                                      ---
        MASS STORAGE =         274.3001          MASS STORAGE =           0.5000
    CNST H MASS FLUX =           0.0000      CNST H MASS FLUX =           0.0000
      WELL MASS FLUX =           0.0000        WELL MASS FLUX =           0.0000

            TOTAL IN =         274.3001              TOTAL IN =           0.5000

          OUT:                                     OUT:
          ----                                     ----
        MASS STORAGE =           0.2827          MASS STORAGE =           0.0000
    CNST H MASS FLUX =           0.0000      CNST H MASS FLUX =           0.0000
      WELL MASS FLUX =         274.0173        WELL MASS FLUX =           0.5000

           TOTAL OUT =         274.3001             TOTAL OUT =           0.5000

            IN - OUT =       4.3860E-10              IN - OUT =           0.0000

 PERCENT DISCREPANCY =           0.00     PERCENT DISCREPANCY =           0.00






          TIME SUMMARY AT END OF TIME STEP         5 IN STRESS PERIOD        19
                    SECONDS     MINUTES      HOURS       DAYS        YEARS
                    -----------------------------------------------------------
   TIME STEP LENGTH 2.07051E+05  3450.8      57.514      2.3964     6.56105E-03
 STRESS PERIOD TIME 7.43051E+05  12384.      206.40      8.6001     2.35459E-02
         TOTAL TIME 4.73990E+07 7.89984E+05  13166.      548.60      1.5020    
1
 -------------------------------------------------------------------------------------
 
 SOLVING FOR HEAD 

 Outer-Iteration  Inner-Iteration  Backtracking  Number of        Incoming       Outgoing  Maximum HeadChange      Maximum Head Change
     Number           Count           Flag       Backtracks       Residual       Residual           Value              Location
        1                             0             0          0.346147E-01     0.346147E-01
        1                6                                                                       -0.123307                   400           GWF-node number
        1                6                                                                       -0.117172                     2           CLN-node number
        2                             0             0          0.174032E-06     0.174032E-06
        2                1                                                                        0.126760E-07               416           GWF-node number
        2                1                                                                       -0.250231E-07                 3           CLN-node number
     2 CALLS TO SPARSE MATRIX SOLVER PACKAGE  IN FLOW TIME STEP       6 STRESS PERIOD      19

 TOTAL OF       2OUTER ITERATIONS
  MAXIMUM CHANGE FOR EACH ITERATION:
   MAX. CHANGE        NODE  MAX. CHANGE        NODE  MAX. CHANGE        NODE  MAX. CHANGE        NODE  MAX. CHANGE        NODE
 ------------------------------------------------------------------------------------------------------------------------------------
  -0.12331    ,        400  0.12676E-07,        416

  MAXIMUM CHANGE FOR CLN NODE AT EACH ITERATION:
   MAX. CHANGE    CLN-CELL  MAX. CHANGE    CLN-CELL  MAX. CHANGE    CLN-CELL  MAX. CHANGE    CLN-CELL  MAX. CHANGE    CLN-CELL
 ------------------------------------------------------------------------------------------------------------------------------------
  -0.11717    ,          2 -0.25023E-07,          3

 HEAD/DRAWDOWN PRINTOUT FLAG = 1     TOTAL BUDGET PRINTOUT FLAG = 1
 CELL-BY-CELL FLOW TERM FLAG = 1
 CONCENTRATION PRINTOUT FLAG = 1

 OUTPUT FLAGS FOR ALL LAYERS ARE THE SAME:
   HEAD    DRAWDOWN  HEAD  DRAWDOWN    CONC    CONC
 PRINTOUT  PRINTOUT  SAVE    SAVE    PRINTOUT  SAVE
 ---------------------------------------------------
     0         0       1       1       0       1
 UBUDSVU SAVING "         STORAGE" ON UNIT  50 AT TIME STEP      6, STRESS PERIOD     19
 UBUDSV SAVING "     CLN STORAGE" ON UNIT 144 AT TIME STEP      6, STRESS PERIOD      19
 UBUDSVU SAVING "   CONSTANT HEAD" ON UNIT  50 AT TIME STEP      6, STRESS PERIOD     19
 UBUDSVU SAVING "   FLOW JA FACE " ON UNIT  50 AT TIME STEP      6, STRESS PERIOD     19
 UBUDSVU SAVING "             CLN" ON UNIT  50 AT TIME STEP      6, STRESS PERIOD     19
 UBUDSVU SAVING "  CLN CONST HEAD" ON UNIT 144 AT TIME STEP      6, STRESS PERIOD     19
 UBUDSVU SAVING "   FLOW CLN FACE" ON UNIT 144 AT TIME STEP      6, STRESS PERIOD     19
 UBUDSVU SAVING "             GWF" ON UNIT 144 AT TIME STEP      6, STRESS PERIOD     19
 UBUDSVU SAVING "           WELLS" ON UNIT  50 AT TIME STEP      6, STRESS PERIOD     19
 UBUDSVU SAVING "           WELLS" ON UNIT 144 AT TIME STEP      6, STRESS PERIOD     19

 HEAD WILL BE SAVED ON UNIT       30 AT END OF TIME STEP        6, STRESS PERIOD       19

 DRAWDOWN WILL BE SAVED ON UNIT   31 AT END OF TIME STEP   6, STRESS PERIOD   19

 CLN HEAD WILL BE SAVED ON UNIT   77 AT END OF TIME STEP   6, STRESS PERIOD   19
1
  VOLUMETRIC BUDGET FOR ENTIRE MODEL AT END OF TIME STEP       6 IN STRESS PERIOD      19
  ---------------------------------------------------------------------------------------

     CUMULATIVE VOLUMES      L**3       RATES FOR THIS TIME STEP      L**3/T
     ------------------                 ------------------------

           IN:                                      IN:
           ---                                      ---
             STORAGE =        2756.9278               STORAGE =           4.9971
         CLN STORAGE =           0.4513           CLN STORAGE =       2.8801E-03
       CONSTANT HEAD =           0.0000         CONSTANT HEAD =           0.0000
      CLN CONST HEAD =           0.0000        CLN CONST HEAD =           0.0000
               WELLS =           0.0000                 WELLS =           0.0000

            TOTAL IN =        2757.3791              TOTAL IN =           5.0000

          OUT:                                     OUT:
          ----                                     ----
             STORAGE =           0.0000               STORAGE =           0.0000
         CLN STORAGE =           0.0000           CLN STORAGE =           0.0000
       CONSTANT HEAD =           0.0000         CONSTANT HEAD =           0.0000
      CLN CONST HEAD =           0.0000        CLN CONST HEAD =           0.0000
               WELLS =        2757.3791                 WELLS =           5.0000

           TOTAL OUT =        2757.3791             TOTAL OUT =           5.0000

            IN - OUT =       2.2119E-05              IN - OUT =       1.3552E-08

 PERCENT DISCREPANCY =           0.00     PERCENT DISCREPANCY =           0.00






          TIME SUMMARY AT END OF TIME STEP         6 IN STRESS PERIOD        19
                    SECONDS     MINUTES      HOURS       DAYS        YEARS
                    -----------------------------------------------------------
   TIME STEP LENGTH 2.48461E+05  4141.0      69.017      2.8757     7.87326E-03
 STRESS PERIOD TIME 9.91512E+05  16525.      275.42      11.476     3.14191E-02
         TOTAL TIME 4.76475E+07 7.94125E+05  13235.      551.48      1.5099    
1
 ------------------------------------------------------------------------------------------------------------
 
 SOLVING FOR TRANSPORT 

 ------------------------------------------------------------------------------------------------------------------------
     1 CALLS TO SPARSE MATRIX SOLVER PACKAGE IN TRANSPORT TIME STEP       6 STRESS PERIOD      19 SPECIES  1

 TOTAL OF       1OUTER ITERATIONS
  MAXIMUM CHANGE FOR EACH ITERATION:
   MAX. CHANGE        NODE  MAX. CHANGE        NODE  MAX. CHANGE        NODE  MAX. CHANGE        NODE  MAX. CHANGE        NODE
 ------------------------------------------------------------------------------------------------------------------------------------
  -0.11399E-10,        191

  MAXIMUM CHANGE FOR CLN NODE AT EACH ITERATION:
   MAX. CHANGE    CLN-CELL  MAX. CHANGE    CLN-CELL  MAX. CHANGE    CLN-CELL  MAX. CHANGE    CLN-CELL  MAX. CHANGE    CLN-CELL
 ------------------------------------------------------------------------------------------------------------------------------------
  -0.57244E-09,          1
     TRANSPORT SOLUTION COMPLETE FOR COMPONENT SPECIES NUMBER    1
     ------------------------------------------------------------
 UBUDSVU SAVING "    MASS STORAGE" ON UNIT 145 AT TIME STEP      6, STRESS PERIOD     19
 UBUDSVU SAVING "CLN MASS STORAGE" ON UNIT 145 AT TIME STEP      6, STRESS PERIOD     19
 UBUDSVU SAVING "CNST H MASS FLUX" ON UNIT 145 AT TIME STEP      6, STRESS PERIOD     19
 UBUDSVU SAVING "  WELL MASS FLUX" ON UNIT 145 AT TIME STEP      6, STRESS PERIOD     19

 TRANSPORT SOLUTION COMPLETE FOR ALL SPECIES, SORTING OUTPUT FOR CONCENTRATIONS AND MASS BALANCE
 ----------------------------------------------------------------------------------------------------
     TRANSPORT OUTPUT FOR COMPONENT SPECIES NUMBER    1
     ------------------------------------------------------------

 CONC WILL BE SAVED ON UNIT  132 AT END OF TIME STEP        6, STRESS PERIOD       19

 CLN CONC WILL BE SAVED ON UNIT  188 AT END OF TIME STEP   6, STRESS PERIOD   19
1
  VOLUMETRIC BUDGET FOR ENTIRE MODEL AT END OF TIME STEP       6 IN STRESS PERIOD      19
  ---------------------------------------------------------------------------------------

     CUMULATIVE VOLUMES      L**3       RATES FOR THIS TIME STEP      L**3/T
     ------------------                 ------------------------

           IN:                                      IN:
           ---                                      ---
        MASS STORAGE =         275.7379          MASS STORAGE =           0.5000
    CNST H MASS FLUX =           0.0000      CNST H MASS FLUX =           0.0000
      WELL MASS FLUX =           0.0000        WELL MASS FLUX =           0.0000

            TOTAL IN =         275.7379              TOTAL IN =           0.5000

          OUT:                                     OUT:
          ----                                     ----
        MASS STORAGE =           0.2827          MASS STORAGE =           0.0000
    CNST H MASS FLUX =           0.0000      CNST H MASS FLUX =           0.0000
      WELL MASS FLUX =         275.4552        WELL MASS FLUX =           0.5000

           TOTAL OUT =         275.7379             TOTAL OUT =           0.5000

            IN - OUT =       4.3838E-10              IN - OUT =           0.0000

 PERCENT DISCREPANCY =           0.00     PERCENT DISCREPANCY =           0.00






          TIME SUMMARY AT END OF TIME STEP         6 IN STRESS PERIOD        19
                    SECONDS     MINUTES      HOURS       DAYS        YEARS
                    -----------------------------------------------------------
   TIME STEP LENGTH 2.48461E+05  4141.0      69.017      2.8757     7.87326E-03
 STRESS PERIOD TIME 9.91512E+05  16525.      275.42      11.476     3.14191E-02
         TOTAL TIME 4.76475E+07 7.94125E+05  13235.      551.48      1.5099    
1
 -------------------------------------------------------------------------------------
 
 SOLVING FOR HEAD 

 Outer-Iteration  Inner-Iteration  Backtracking  Number of        Incoming       Outgoing  Maximum HeadChange      Maximum Head Change
     Number           Count           Flag       Backtracks       Residual       Residual           Value              Location
        1                             0             0          0.345780E-01     0.345780E-01
        1                6                                                                       -0.147776                   400           GWF-node number
        1                6                                                                       -0.140449                     3           CLN-node number
        2                             0             0          0.371874E-06     0.371874E-06
        2                1                                                                       -0.489070E-07               190           GWF-node number
        2                1                                                                       -0.108245E-06                 3           CLN-node number
     2 CALLS TO SPARSE MATRIX SOLVER PACKAGE  IN FLOW TIME STEP       7 STRESS PERIOD      19

 TOTAL OF       2OUTER ITERATIONS
  MAXIMUM CHANGE FOR EACH ITERATION:
   MAX. CHANGE        NODE  MAX. CHANGE        NODE  MAX. CHANGE        NODE  MAX. CHANGE        NODE  MAX. CHANGE        NODE
 ------------------------------------------------------------------------------------------------------------------------------------
  -0.14778    ,        400 -0.48907E-07,        190

  MAXIMUM CHANGE FOR CLN NODE AT EACH ITERATION:
   MAX. CHANGE    CLN-CELL  MAX. CHANGE    CLN-CELL  MAX. CHANGE    CLN-CELL  MAX. CHANGE    CLN-CELL  MAX. CHANGE    CLN-CELL
 ------------------------------------------------------------------------------------------------------------------------------------
  -0.14045    ,          3 -0.10825E-06,          3

 HEAD/DRAWDOWN PRINTOUT FLAG = 1     TOTAL BUDGET PRINTOUT FLAG = 1
 CELL-BY-CELL FLOW TERM FLAG = 1
 CONCENTRATION PRINTOUT FLAG = 1

 OUTPUT FLAGS FOR ALL LAYERS ARE THE SAME:
   HEAD    DRAWDOWN  HEAD  DRAWDOWN    CONC    CONC
 PRINTOUT  PRINTOUT  SAVE    SAVE    PRINTOUT  SAVE
 ---------------------------------------------------
     0         0       1       1       0       1
 UBUDSVU SAVING "         STORAGE" ON UNIT  50 AT TIME STEP      7, STRESS PERIOD     19
 UBUDSV SAVING "     CLN STORAGE" ON UNIT 144 AT TIME STEP      7, STRESS PERIOD      19
 UBUDSVU SAVING "   CONSTANT HEAD" ON UNIT  50 AT TIME STEP      7, STRESS PERIOD     19
 UBUDSVU SAVING "   FLOW JA FACE " ON UNIT  50 AT TIME STEP      7, STRESS PERIOD     19
 UBUDSVU SAVING "             CLN" ON UNIT  50 AT TIME STEP      7, STRESS PERIOD     19
 UBUDSVU SAVING "  CLN CONST HEAD" ON UNIT 144 AT TIME STEP      7, STRESS PERIOD     19
 UBUDSVU SAVING "   FLOW CLN FACE" ON UNIT 144 AT TIME STEP      7, STRESS PERIOD     19
 UBUDSVU SAVING "             GWF" ON UNIT 144 AT TIME STEP      7, STRESS PERIOD     19
 UBUDSVU SAVING "           WELLS" ON UNIT  50 AT TIME STEP      7, STRESS PERIOD     19
 UBUDSVU SAVING "           WELLS" ON UNIT 144 AT TIME STEP      7, STRESS PERIOD     19

 HEAD WILL BE SAVED ON UNIT       30 AT END OF TIME STEP        7, STRESS PERIOD       19

 DRAWDOWN WILL BE SAVED ON UNIT   31 AT END OF TIME STEP   7, STRESS PERIOD   19

 CLN HEAD WILL BE SAVED ON UNIT   77 AT END OF TIME STEP   7, STRESS PERIOD   19
1
  VOLUMETRIC BUDGET FOR ENTIRE MODEL AT END OF TIME STEP       7 IN STRESS PERIOD      19
  ---------------------------------------------------------------------------------------

     CUMULATIVE VOLUMES      L**3       RATES FOR THIS TIME STEP      L**3/T
     ------------------                 ------------------------

           IN:                                      IN:
           ---                                      ---
             STORAGE =        2774.1721               STORAGE =           4.9971
         CLN STORAGE =           0.4612           CLN STORAGE =       2.8769E-03
       CONSTANT HEAD =           0.0000         CONSTANT HEAD =           0.0000
      CLN CONST HEAD =           0.0000        CLN CONST HEAD =           0.0000
               WELLS =           0.0000                 WELLS =           0.0000

            TOTAL IN =        2774.6333              TOTAL IN =           5.0000

          OUT:                                     OUT:
          ----                                     ----
             STORAGE =           0.0000               STORAGE =           0.0000
         CLN STORAGE =           0.0000           CLN STORAGE =           0.0000
       CONSTANT HEAD =           0.0000         CONSTANT HEAD =           0.0000
      CLN CONST HEAD =           0.0000        CLN CONST HEAD =           0.0000
               WELLS =        2774.6333                 WELLS =           5.0000

           TOTAL OUT =        2774.6333             TOTAL OUT =           5.0000

            IN - OUT =       2.2241E-05              IN - OUT =       3.5253E-08

 PERCENT DISCREPANCY =           0.00     PERCENT DISCREPANCY =           0.00






          TIME SUMMARY AT END OF TIME STEP         7 IN STRESS PERIOD        19
                    SECONDS     MINUTES      HOURS       DAYS        YEARS
                    -----------------------------------------------------------
   TIME STEP LENGTH 2.98153E+05  4969.2      82.820      3.4509     9.44791E-03
 STRESS PERIOD TIME 1.28967E+06  21494.      358.24      14.927     4.08670E-02
         TOTAL TIME 4.79457E+07 7.99094E+05  13318.      554.93      1.5193    
1
 ------------------------------------------------------------------------------------------------------------
 
 SOLVING FOR TRANSPORT 

 ------------------------------------------------------------------------------------------------------------------------
     1 CALLS TO SPARSE MATRIX SOLVER PACKAGE IN TRANSPORT TIME STEP       7 STRESS PERIOD      19 SPECIES  1

 TOTAL OF       1OUTER ITERATIONS
  MAXIMUM CHANGE FOR EACH ITERATION:
   MAX. CHANGE        NODE  MAX. CHANGE        NODE  MAX. CHANGE        NODE  MAX. CHANGE        NODE  MAX. CHANGE        NODE
 ------------------------------------------------------------------------------------------------------------------------------------
  -0.25481E-10,        191

  MAXIMUM CHANGE FOR CLN NODE AT EACH ITERATION:
   MAX. CHANGE    CLN-CELL  MAX. CHANGE    CLN-CELL  MAX. CHANGE    CLN-CELL  MAX. CHANGE    CLN-CELL  MAX. CHANGE    CLN-CELL
 ------------------------------------------------------------------------------------------------------------------------------------
   0.83277E-09,          2
     TRANSPORT SOLUTION COMPLETE FOR COMPONENT SPECIES NUMBER    1
     ------------------------------------------------------------
 UBUDSVU SAVING "    MASS STORAGE" ON UNIT 145 AT TIME STEP      7, STRESS PERIOD     19
 UBUDSVU SAVING "CLN MASS STORAGE" ON UNIT 145 AT TIME STEP      7, STRESS PERIOD     19
 UBUDSVU SAVING "CNST H MASS FLUX" ON UNIT 145 AT TIME STEP      7, STRESS PERIOD     19
 UBUDSVU SAVING "  WELL MASS FLUX" ON UNIT 145 AT TIME STEP      7, STRESS PERIOD     19

 TRANSPORT SOLUTION COMPLETE FOR ALL SPECIES, SORTING OUTPUT FOR CONCENTRATIONS AND MASS BALANCE
 ----------------------------------------------------------------------------------------------------
     TRANSPORT OUTPUT FOR COMPONENT SPECIES NUMBER    1
     ------------------------------------------------------------

 CONC WILL BE SAVED ON UNIT  132 AT END OF TIME STEP        7, STRESS PERIOD       19

 CLN CONC WILL BE SAVED ON UNIT  188 AT END OF TIME STEP   7, STRESS PERIOD   19
1
  VOLUMETRIC BUDGET FOR ENTIRE MODEL AT END OF TIME STEP       7 IN STRESS PERIOD      19
  ---------------------------------------------------------------------------------------

     CUMULATIVE VOLUMES      L**3       RATES FOR THIS TIME STEP      L**3/T
     ------------------                 ------------------------

           IN:                                      IN:
           ---                                      ---
        MASS STORAGE =         277.4633          MASS STORAGE =           0.5000
    CNST H MASS FLUX =           0.0000      CNST H MASS FLUX =           0.0000
      WELL MASS FLUX =           0.0000        WELL MASS FLUX =           0.0000

            TOTAL IN =         277.4633              TOTAL IN =           0.5000

          OUT:                                     OUT:
          ----                                     ----
        MASS STORAGE =           0.2827          MASS STORAGE =       3.1248E-10
    CNST H MASS FLUX =           0.0000      CNST H MASS FLUX =           0.0000
      WELL MASS FLUX =         277.1806        WELL MASS FLUX =           0.5000

           TOTAL OUT =         277.4633             TOTAL OUT =           0.5000

            IN - OUT =       4.2701E-10              IN - OUT =      -3.1248E-10

 PERCENT DISCREPANCY =           0.00     PERCENT DISCREPANCY =          -0.00






          TIME SUMMARY AT END OF TIME STEP         7 IN STRESS PERIOD        19
                    SECONDS     MINUTES      HOURS       DAYS        YEARS
                    -----------------------------------------------------------
   TIME STEP LENGTH 2.98153E+05  4969.2      82.820      3.4509     9.44791E-03
 STRESS PERIOD TIME 1.28967E+06  21494.      358.24      14.927     4.08670E-02
         TOTAL TIME 4.79457E+07 7.99094E+05  13318.      554.93      1.5193    
1
 -------------------------------------------------------------------------------------
 
 SOLVING FOR HEAD 

 Outer-Iteration  Inner-Iteration  Backtracking  Number of        Incoming       Outgoing  Maximum HeadChange      Maximum Head Change
     Number           Count           Flag       Backtracks       Residual       Residual           Value              Location
        1                             0             0          0.345343E-01     0.345343E-01
        1                6                                                                       -0.177055                   400           GWF-node number
        1                6                                                                       -0.168313                     2           CLN-node number
        2                             0             0          0.799608E-06     0.799608E-06
        2                1                                                                        0.118770E-06               416           GWF-node number
        2                1                                                                        0.190810E-06                 1           CLN-node number
     2 CALLS TO SPARSE MATRIX SOLVER PACKAGE  IN FLOW TIME STEP       8 STRESS PERIOD      19

 TOTAL OF       2OUTER ITERATIONS
  MAXIMUM CHANGE FOR EACH ITERATION:
   MAX. CHANGE        NODE  MAX. CHANGE        NODE  MAX. CHANGE        NODE  MAX. CHANGE        NODE  MAX. CHANGE        NODE
 ------------------------------------------------------------------------------------------------------------------------------------
  -0.17706    ,        400  0.11877E-06,        416

  MAXIMUM CHANGE FOR CLN NODE AT EACH ITERATION:
   MAX. CHANGE    CLN-CELL  MAX. CHANGE    CLN-CELL  MAX. CHANGE    CLN-CELL  MAX. CHANGE    CLN-CELL  MAX. CHANGE    CLN-CELL
 ------------------------------------------------------------------------------------------------------------------------------------
  -0.16831    ,          2  0.19081E-06,          1

 HEAD/DRAWDOWN PRINTOUT FLAG = 1     TOTAL BUDGET PRINTOUT FLAG = 1
 CELL-BY-CELL FLOW TERM FLAG = 1
 CONCENTRATION PRINTOUT FLAG = 1

 OUTPUT FLAGS FOR ALL LAYERS ARE THE SAME:
   HEAD    DRAWDOWN  HEAD  DRAWDOWN    CONC    CONC
 PRINTOUT  PRINTOUT  SAVE    SAVE    PRINTOUT  SAVE
 ---------------------------------------------------
     0         0       1       1       0       1
 UBUDSVU SAVING "         STORAGE" ON UNIT  50 AT TIME STEP      8, STRESS PERIOD     19
 UBUDSV SAVING "     CLN STORAGE" ON UNIT 144 AT TIME STEP      8, STRESS PERIOD      19
 UBUDSVU SAVING "   CONSTANT HEAD" ON UNIT  50 AT TIME STEP      8, STRESS PERIOD     19
 UBUDSVU SAVING "   FLOW JA FACE " ON UNIT  50 AT TIME STEP      8, STRESS PERIOD     19
 UBUDSVU SAVING "             CLN" ON UNIT  50 AT TIME STEP      8, STRESS PERIOD     19
 UBUDSVU SAVING "  CLN CONST HEAD" ON UNIT 144 AT TIME STEP      8, STRESS PERIOD     19
 UBUDSVU SAVING "   FLOW CLN FACE" ON UNIT 144 AT TIME STEP      8, STRESS PERIOD     19
 UBUDSVU SAVING "             GWF" ON UNIT 144 AT TIME STEP      8, STRESS PERIOD     19
 UBUDSVU SAVING "           WELLS" ON UNIT  50 AT TIME STEP      8, STRESS PERIOD     19
 UBUDSVU SAVING "           WELLS" ON UNIT 144 AT TIME STEP      8, STRESS PERIOD     19

 HEAD WILL BE SAVED ON UNIT       30 AT END OF TIME STEP        8, STRESS PERIOD       19

 DRAWDOWN WILL BE SAVED ON UNIT   31 AT END OF TIME STEP   8, STRESS PERIOD   19

 CLN HEAD WILL BE SAVED ON UNIT   77 AT END OF TIME STEP   8, STRESS PERIOD   19
1
  VOLUMETRIC BUDGET FOR ENTIRE MODEL AT END OF TIME STEP       8 IN STRESS PERIOD      19
  ---------------------------------------------------------------------------------------

     CUMULATIVE VOLUMES      L**3       RATES FOR THIS TIME STEP      L**3/T
     ------------------                 ------------------------

           IN:                                      IN:
           ---                                      ---
             STORAGE =        2794.8653               STORAGE =           4.9971
         CLN STORAGE =           0.4731           CLN STORAGE =       2.8730E-03
       CONSTANT HEAD =           0.0000         CONSTANT HEAD =           0.0000
      CLN CONST HEAD =           0.0000        CLN CONST HEAD =           0.0000
               WELLS =           0.0000                 WELLS =           0.0000

            TOTAL IN =        2795.3384              TOTAL IN =           5.0000

          OUT:                                     OUT:
          ----                                     ----
             STORAGE =           0.0000               STORAGE =           0.0000
         CLN STORAGE =           0.0000           CLN STORAGE =           0.0000
       CONSTANT HEAD =           0.0000         CONSTANT HEAD =           0.0000
      CLN CONST HEAD =           0.0000        CLN CONST HEAD =           0.0000
               WELLS =        2795.3384                 WELLS =           5.0000

           TOTAL OUT =        2795.3384             TOTAL OUT =           5.0000

            IN - OUT =       2.2312E-05              IN - OUT =       1.7142E-08

 PERCENT DISCREPANCY =           0.00     PERCENT DISCREPANCY =           0.00






          TIME SUMMARY AT END OF TIME STEP         8 IN STRESS PERIOD        19
                    SECONDS     MINUTES      HOURS       DAYS        YEARS
                    -----------------------------------------------------------
   TIME STEP LENGTH 3.57784E+05  5963.1      99.384      4.1410     1.13375E-02
 STRESS PERIOD TIME 1.64745E+06  27457.      457.62      19.068     5.22045E-02
         TOTAL TIME 4.83034E+07 8.05057E+05  13418.      559.07      1.5306    
1
 ------------------------------------------------------------------------------------------------------------
 
 SOLVING FOR TRANSPORT 

 ------------------------------------------------------------------------------------------------------------------------
     1 CALLS TO SPARSE MATRIX SOLVER PACKAGE IN TRANSPORT TIME STEP       8 STRESS PERIOD      19 SPECIES  1

 TOTAL OF       1OUTER ITERATIONS
  MAXIMUM CHANGE FOR EACH ITERATION:
   MAX. CHANGE        NODE  MAX. CHANGE        NODE  MAX. CHANGE        NODE  MAX. CHANGE        NODE  MAX. CHANGE        NODE
 ------------------------------------------------------------------------------------------------------------------------------------
   0.21041E-10,        191

  MAXIMUM CHANGE FOR CLN NODE AT EACH ITERATION:
   MAX. CHANGE    CLN-CELL  MAX. CHANGE    CLN-CELL  MAX. CHANGE    CLN-CELL  MAX. CHANGE    CLN-CELL  MAX. CHANGE    CLN-CELL
 ------------------------------------------------------------------------------------------------------------------------------------
   0.27045E-08,          1
     TRANSPORT SOLUTION COMPLETE FOR COMPONENT SPECIES NUMBER    1
     ------------------------------------------------------------
 UBUDSVU SAVING "    MASS STORAGE" ON UNIT 145 AT TIME STEP      8, STRESS PERIOD     19
 UBUDSVU SAVING "CLN MASS STORAGE" ON UNIT 145 AT TIME STEP      8, STRESS PERIOD     19
 UBUDSVU SAVING "CNST H MASS FLUX" ON UNIT 145 AT TIME STEP      8, STRESS PERIOD     19
 UBUDSVU SAVING "  WELL MASS FLUX" ON UNIT 145 AT TIME STEP      8, STRESS PERIOD     19

 TRANSPORT SOLUTION COMPLETE FOR ALL SPECIES, SORTING OUTPUT FOR CONCENTRATIONS AND MASS BALANCE
 ----------------------------------------------------------------------------------------------------
     TRANSPORT OUTPUT FOR COMPONENT SPECIES NUMBER    1
     ------------------------------------------------------------

 CONC WILL BE SAVED ON UNIT  132 AT END OF TIME STEP        8, STRESS PERIOD       19

 CLN CONC WILL BE SAVED ON UNIT  188 AT END OF TIME STEP   8, STRESS PERIOD   19
1
  VOLUMETRIC BUDGET FOR ENTIRE MODEL AT END OF TIME STEP       8 IN STRESS PERIOD      19
  ---------------------------------------------------------------------------------------

     CUMULATIVE VOLUMES      L**3       RATES FOR THIS TIME STEP      L**3/T
     ------------------                 ------------------------

           IN:                                      IN:
           ---                                      ---
        MASS STORAGE =         279.5339          MASS STORAGE =           0.5000
    CNST H MASS FLUX =           0.0000      CNST H MASS FLUX =           0.0000
      WELL MASS FLUX =           0.0000        WELL MASS FLUX =           0.0000

            TOTAL IN =         279.5339              TOTAL IN =           0.5000

          OUT:                                     OUT:
          ----                                     ----
        MASS STORAGE =           0.2827          MASS STORAGE =           0.0000
    CNST H MASS FLUX =           0.0000      CNST H MASS FLUX =           0.0000
      WELL MASS FLUX =         279.2511        WELL MASS FLUX =           0.5000

           TOTAL OUT =         279.5339             TOTAL OUT =           0.5000

            IN - OUT =       4.4258E-10              IN - OUT =           0.0000

 PERCENT DISCREPANCY =           0.00     PERCENT DISCREPANCY =           0.00






          TIME SUMMARY AT END OF TIME STEP         8 IN STRESS PERIOD        19
                    SECONDS     MINUTES      HOURS       DAYS        YEARS
                    -----------------------------------------------------------
   TIME STEP LENGTH 3.57784E+05  5963.1      99.384      4.1410     1.13375E-02
 STRESS PERIOD TIME 1.64745E+06  27457.      457.62      19.068     5.22045E-02
         TOTAL TIME 4.83034E+07 8.05057E+05  13418.      559.07      1.5306    
1
 -------------------------------------------------------------------------------------
 
 SOLVING FOR HEAD 

 Outer-Iteration  Inner-Iteration  Backtracking  Number of        Incoming       Outgoing  Maximum HeadChange      Maximum Head Change
     Number           Count           Flag       Backtracks       Residual       Residual           Value              Location
        1                             0             0          0.344825E-01     0.344825E-01
        1                6                                                                       -0.212072                   400           GWF-node number
        1                6                                                                       -0.201653                     3           CLN-node number
        2                             0             0          0.173325E-05     0.173325E-05
        2                1                                                                       -0.325178E-06               650           GWF-node number
        2                1                                                                        0.255657E-06                 1           CLN-node number
     2 CALLS TO SPARSE MATRIX SOLVER PACKAGE  IN FLOW TIME STEP       9 STRESS PERIOD      19

 TOTAL OF       2OUTER ITERATIONS
  MAXIMUM CHANGE FOR EACH ITERATION:
   MAX. CHANGE        NODE  MAX. CHANGE        NODE  MAX. CHANGE        NODE  MAX. CHANGE        NODE  MAX. CHANGE        NODE
 ------------------------------------------------------------------------------------------------------------------------------------
  -0.21207    ,        400 -0.32518E-06,        650

  MAXIMUM CHANGE FOR CLN NODE AT EACH ITERATION:
   MAX. CHANGE    CLN-CELL  MAX. CHANGE    CLN-CELL  MAX. CHANGE    CLN-CELL  MAX. CHANGE    CLN-CELL  MAX. CHANGE    CLN-CELL
 ------------------------------------------------------------------------------------------------------------------------------------
  -0.20165    ,          3  0.25566E-06,          1

 HEAD/DRAWDOWN PRINTOUT FLAG = 1     TOTAL BUDGET PRINTOUT FLAG = 1
 CELL-BY-CELL FLOW TERM FLAG = 1
 CONCENTRATION PRINTOUT FLAG = 1

 OUTPUT FLAGS FOR ALL LAYERS ARE THE SAME:
   HEAD    DRAWDOWN  HEAD  DRAWDOWN    CONC    CONC
 PRINTOUT  PRINTOUT  SAVE    SAVE    PRINTOUT  SAVE
 ---------------------------------------------------
     0         0       1       1       0       1
 UBUDSVU SAVING "         STORAGE" ON UNIT  50 AT TIME STEP      9, STRESS PERIOD     19
 UBUDSV SAVING "     CLN STORAGE" ON UNIT 144 AT TIME STEP      9, STRESS PERIOD      19
 UBUDSVU SAVING "   CONSTANT HEAD" ON UNIT  50 AT TIME STEP      9, STRESS PERIOD     19
 UBUDSVU SAVING "   FLOW JA FACE " ON UNIT  50 AT TIME STEP      9, STRESS PERIOD     19
 UBUDSVU SAVING "             CLN" ON UNIT  50 AT TIME STEP      9, STRESS PERIOD     19
 UBUDSVU SAVING "  CLN CONST HEAD" ON UNIT 144 AT TIME STEP      9, STRESS PERIOD     19
 UBUDSVU SAVING "   FLOW CLN FACE" ON UNIT 144 AT TIME STEP      9, STRESS PERIOD     19
 UBUDSVU SAVING "             GWF" ON UNIT 144 AT TIME STEP      9, STRESS PERIOD     19
 UBUDSVU SAVING "           WELLS" ON UNIT  50 AT TIME STEP      9, STRESS PERIOD     19
 UBUDSVU SAVING "           WELLS" ON UNIT 144 AT TIME STEP      9, STRESS PERIOD     19

 HEAD WILL BE SAVED ON UNIT       30 AT END OF TIME STEP        9, STRESS PERIOD       19

 DRAWDOWN WILL BE SAVED ON UNIT   31 AT END OF TIME STEP   9, STRESS PERIOD   19

 CLN HEAD WILL BE SAVED ON UNIT   77 AT END OF TIME STEP   9, STRESS PERIOD   19
1
  VOLUMETRIC BUDGET FOR ENTIRE MODEL AT END OF TIME STEP       9 IN STRESS PERIOD      19
  ---------------------------------------------------------------------------------------

     CUMULATIVE VOLUMES      L**3       RATES FOR THIS TIME STEP      L**3/T
     ------------------                 ------------------------

           IN:                                      IN:
           ---                                      ---
             STORAGE =        2819.6972               STORAGE =           4.9971
         CLN STORAGE =           0.4874           CLN STORAGE =       2.8685E-03
       CONSTANT HEAD =           0.0000         CONSTANT HEAD =           0.0000
      CLN CONST HEAD =           0.0000        CLN CONST HEAD =           0.0000
               WELLS =           0.0000                 WELLS =           0.0000

            TOTAL IN =        2820.1846              TOTAL IN =           5.0000

          OUT:                                     OUT:
          ----                                     ----
             STORAGE =           0.0000               STORAGE =           0.0000
         CLN STORAGE =           0.0000           CLN STORAGE =           0.0000
       CONSTANT HEAD =           0.0000         CONSTANT HEAD =           0.0000
      CLN CONST HEAD =           0.0000        CLN CONST HEAD =           0.0000
               WELLS =        2820.1845                 WELLS =           5.0000

           TOTAL OUT =        2820.1845             TOTAL OUT =           5.0000

            IN - OUT =       2.2313E-05              IN - OUT =       3.2866E-10

 PERCENT DISCREPANCY =           0.00     PERCENT DISCREPANCY =           0.00






          TIME SUMMARY AT END OF TIME STEP         9 IN STRESS PERIOD        19
                    SECONDS     MINUTES      HOURS       DAYS        YEARS
                    -----------------------------------------------------------
   TIME STEP LENGTH 4.29341E+05  7155.7      119.26      4.9692     1.36050E-02
 STRESS PERIOD TIME 2.07679E+06  34613.      576.89      24.037     6.58095E-02
         TOTAL TIME 4.87328E+07 8.12213E+05  13537.      564.04      1.5442    
1
 ------------------------------------------------------------------------------------------------------------
 
 SOLVING FOR TRANSPORT 

 ------------------------------------------------------------------------------------------------------------------------
     1 CALLS TO SPARSE MATRIX SOLVER PACKAGE IN TRANSPORT TIME STEP       9 STRESS PERIOD      19 SPECIES  1

 TOTAL OF       1OUTER ITERATIONS
  MAXIMUM CHANGE FOR EACH ITERATION:
   MAX. CHANGE        NODE  MAX. CHANGE        NODE  MAX. CHANGE        NODE  MAX. CHANGE        NODE  MAX. CHANGE        NODE
 ------------------------------------------------------------------------------------------------------------------------------------
   0.37112E-10,        191

  MAXIMUM CHANGE FOR CLN NODE AT EACH ITERATION:
   MAX. CHANGE    CLN-CELL  MAX. CHANGE    CLN-CELL  MAX. CHANGE    CLN-CELL  MAX. CHANGE    CLN-CELL  MAX. CHANGE    CLN-CELL
 ------------------------------------------------------------------------------------------------------------------------------------
  -0.20699E-09,          2
     TRANSPORT SOLUTION COMPLETE FOR COMPONENT SPECIES NUMBER    1
     ------------------------------------------------------------
 UBUDSVU SAVING "    MASS STORAGE" ON UNIT 145 AT TIME STEP      9, STRESS PERIOD     19
 UBUDSVU SAVING "CLN MASS STORAGE" ON UNIT 145 AT TIME STEP      9, STRESS PERIOD     19
 UBUDSVU SAVING "CNST H MASS FLUX" ON UNIT 145 AT TIME STEP      9, STRESS PERIOD     19
 UBUDSVU SAVING "  WELL MASS FLUX" ON UNIT 145 AT TIME STEP      9, STRESS PERIOD     19

 TRANSPORT SOLUTION COMPLETE FOR ALL SPECIES, SORTING OUTPUT FOR CONCENTRATIONS AND MASS BALANCE
 ----------------------------------------------------------------------------------------------------
     TRANSPORT OUTPUT FOR COMPONENT SPECIES NUMBER    1
     ------------------------------------------------------------

 CONC WILL BE SAVED ON UNIT  132 AT END OF TIME STEP        9, STRESS PERIOD       19

 CLN CONC WILL BE SAVED ON UNIT  188 AT END OF TIME STEP   9, STRESS PERIOD   19
1
  VOLUMETRIC BUDGET FOR ENTIRE MODEL AT END OF TIME STEP       9 IN STRESS PERIOD      19
  ---------------------------------------------------------------------------------------

     CUMULATIVE VOLUMES      L**3       RATES FOR THIS TIME STEP      L**3/T
     ------------------                 ------------------------

           IN:                                      IN:
           ---                                      ---
        MASS STORAGE =         282.0185          MASS STORAGE =           0.5000
    CNST H MASS FLUX =           0.0000      CNST H MASS FLUX =           0.0000
      WELL MASS FLUX =           0.0000        WELL MASS FLUX =           0.0000

            TOTAL IN =         282.0185              TOTAL IN =           0.5000

          OUT:                                     OUT:
          ----                                     ----
        MASS STORAGE =           0.2827          MASS STORAGE =       1.7709E-11
    CNST H MASS FLUX =           0.0000      CNST H MASS FLUX =           0.0000
      WELL MASS FLUX =         281.7357        WELL MASS FLUX =           0.5000

           TOTAL OUT =         282.0185             TOTAL OUT =           0.5000

            IN - OUT =       4.7663E-10              IN - OUT =      -1.7709E-11

 PERCENT DISCREPANCY =           0.00     PERCENT DISCREPANCY =          -0.00






          TIME SUMMARY AT END OF TIME STEP         9 IN STRESS PERIOD        19
                    SECONDS     MINUTES      HOURS       DAYS        YEARS
                    -----------------------------------------------------------
   TIME STEP LENGTH 4.29341E+05  7155.7      119.26      4.9692     1.36050E-02
 STRESS PERIOD TIME 2.07679E+06  34613.      576.89      24.037     6.58095E-02
         TOTAL TIME 4.87328E+07 8.12213E+05  13537.      564.04      1.5442    
1
 -------------------------------------------------------------------------------------
 
 SOLVING FOR HEAD 

 Outer-Iteration  Inner-Iteration  Backtracking  Number of        Incoming       Outgoing  Maximum HeadChange      Maximum Head Change
     Number           Count           Flag       Backtracks       Residual       Residual           Value              Location
        1                             0             0          0.344211E-01     0.344211E-01
        1                7                                                                       -0.253924                   400           GWF-node number
        1                7                                                                       -0.241523                     2           CLN-node number
        2                             0             0          0.379273E-05     0.379273E-05
        2                1                                                                       -0.525510E-07               417           GWF-node number
        2                1                                                                        0.822508E-07                 1           CLN-node number
     2 CALLS TO SPARSE MATRIX SOLVER PACKAGE  IN FLOW TIME STEP      10 STRESS PERIOD      19

 TOTAL OF       2OUTER ITERATIONS
  MAXIMUM CHANGE FOR EACH ITERATION:
   MAX. CHANGE        NODE  MAX. CHANGE        NODE  MAX. CHANGE        NODE  MAX. CHANGE        NODE  MAX. CHANGE        NODE
 ------------------------------------------------------------------------------------------------------------------------------------
  -0.25392    ,        400 -0.52551E-07,        417

  MAXIMUM CHANGE FOR CLN NODE AT EACH ITERATION:
   MAX. CHANGE    CLN-CELL  MAX. CHANGE    CLN-CELL  MAX. CHANGE    CLN-CELL  MAX. CHANGE    CLN-CELL  MAX. CHANGE    CLN-CELL
 ------------------------------------------------------------------------------------------------------------------------------------
  -0.24152    ,          2  0.82251E-07,          1

 HEAD/DRAWDOWN PRINTOUT FLAG = 1     TOTAL BUDGET PRINTOUT FLAG = 1
 CELL-BY-CELL FLOW TERM FLAG = 1
 CONCENTRATION PRINTOUT FLAG = 1

 OUTPUT FLAGS FOR ALL LAYERS ARE THE SAME:
   HEAD    DRAWDOWN  HEAD  DRAWDOWN    CONC    CONC
 PRINTOUT  PRINTOUT  SAVE    SAVE    PRINTOUT  SAVE
 ---------------------------------------------------
     0         0       1       1       0       1
 UBUDSVU SAVING "         STORAGE" ON UNIT  50 AT TIME STEP     10, STRESS PERIOD     19
 UBUDSV SAVING "     CLN STORAGE" ON UNIT 144 AT TIME STEP     10, STRESS PERIOD      19
 UBUDSVU SAVING "   CONSTANT HEAD" ON UNIT  50 AT TIME STEP     10, STRESS PERIOD     19
 UBUDSVU SAVING "   FLOW JA FACE " ON UNIT  50 AT TIME STEP     10, STRESS PERIOD     19
 UBUDSVU SAVING "             CLN" ON UNIT  50 AT TIME STEP     10, STRESS PERIOD     19
 UBUDSVU SAVING "  CLN CONST HEAD" ON UNIT 144 AT TIME STEP     10, STRESS PERIOD     19
 UBUDSVU SAVING "   FLOW CLN FACE" ON UNIT 144 AT TIME STEP     10, STRESS PERIOD     19
 UBUDSVU SAVING "             GWF" ON UNIT 144 AT TIME STEP     10, STRESS PERIOD     19
 UBUDSVU SAVING "           WELLS" ON UNIT  50 AT TIME STEP     10, STRESS PERIOD     19
 UBUDSVU SAVING "           WELLS" ON UNIT 144 AT TIME STEP     10, STRESS PERIOD     19

 HEAD WILL BE SAVED ON UNIT       30 AT END OF TIME STEP       10, STRESS PERIOD       19

 DRAWDOWN WILL BE SAVED ON UNIT   31 AT END OF TIME STEP  10, STRESS PERIOD   19

 CLN HEAD WILL BE SAVED ON UNIT   77 AT END OF TIME STEP  10, STRESS PERIOD   19
1
  VOLUMETRIC BUDGET FOR ENTIRE MODEL AT END OF TIME STEP      10 IN STRESS PERIOD      19
  ---------------------------------------------------------------------------------------

     CUMULATIVE VOLUMES      L**3       RATES FOR THIS TIME STEP      L**3/T
     ------------------                 ------------------------

           IN:                                      IN:
           ---                                      ---
             STORAGE =        2849.4954               STORAGE =           4.9971
         CLN STORAGE =           0.5045           CLN STORAGE =       2.8630E-03
       CONSTANT HEAD =           0.0000         CONSTANT HEAD =           0.0000
      CLN CONST HEAD =           0.0000        CLN CONST HEAD =           0.0000
               WELLS =           0.0000                 WELLS =           0.0000

            TOTAL IN =        2849.9999              TOTAL IN =           5.0000

          OUT:                                     OUT:
          ----                                     ----
             STORAGE =           0.0000               STORAGE =           0.0000
         CLN STORAGE =           0.0000           CLN STORAGE =           0.0000
       CONSTANT HEAD =           0.0000         CONSTANT HEAD =           0.0000
      CLN CONST HEAD =           0.0000        CLN CONST HEAD =           0.0000
               WELLS =        2849.9999                 WELLS =           5.0000

           TOTAL OUT =        2849.9999             TOTAL OUT =           5.0000

            IN - OUT =       2.2496E-05              IN - OUT =       3.0693E-08

 PERCENT DISCREPANCY =           0.00     PERCENT DISCREPANCY =           0.00






          TIME SUMMARY AT END OF TIME STEP        10 IN STRESS PERIOD        19
                    SECONDS     MINUTES      HOURS       DAYS        YEARS
                    -----------------------------------------------------------
   TIME STEP LENGTH 5.15209E+05  8586.8      143.11      5.9631     1.63260E-02
 STRESS PERIOD TIME 2.59200E+06  43200.      720.00      30.000     8.21355E-02
         TOTAL TIME 4.92480E+07 8.20800E+05  13680.      570.00      1.5606    
1
 ------------------------------------------------------------------------------------------------------------
 
 SOLVING FOR TRANSPORT 

 ------------------------------------------------------------------------------------------------------------------------
     1 CALLS TO SPARSE MATRIX SOLVER PACKAGE IN TRANSPORT TIME STEP      10 STRESS PERIOD      19 SPECIES  1

 TOTAL OF       1OUTER ITERATIONS
  MAXIMUM CHANGE FOR EACH ITERATION:
   MAX. CHANGE        NODE  MAX. CHANGE        NODE  MAX. CHANGE        NODE  MAX. CHANGE        NODE  MAX. CHANGE        NODE
 ------------------------------------------------------------------------------------------------------------------------------------
   0.36847E-11,        190

  MAXIMUM CHANGE FOR CLN NODE AT EACH ITERATION:
   MAX. CHANGE    CLN-CELL  MAX. CHANGE    CLN-CELL  MAX. CHANGE    CLN-CELL  MAX. CHANGE    CLN-CELL  MAX. CHANGE    CLN-CELL
 ------------------------------------------------------------------------------------------------------------------------------------
   0.63201E-09,          2
     TRANSPORT SOLUTION COMPLETE FOR COMPONENT SPECIES NUMBER    1
     ------------------------------------------------------------
 UBUDSVU SAVING "    MASS STORAGE" ON UNIT 145 AT TIME STEP     10, STRESS PERIOD     19
 UBUDSVU SAVING "CLN MASS STORAGE" ON UNIT 145 AT TIME STEP     10, STRESS PERIOD     19
 UBUDSVU SAVING "CNST H MASS FLUX" ON UNIT 145 AT TIME STEP     10, STRESS PERIOD     19
 UBUDSVU SAVING "  WELL MASS FLUX" ON UNIT 145 AT TIME STEP     10, STRESS PERIOD     19

 TRANSPORT SOLUTION COMPLETE FOR ALL SPECIES, SORTING OUTPUT FOR CONCENTRATIONS AND MASS BALANCE
 ----------------------------------------------------------------------------------------------------
     TRANSPORT OUTPUT FOR COMPONENT SPECIES NUMBER    1
     ------------------------------------------------------------

 CONC WILL BE SAVED ON UNIT  132 AT END OF TIME STEP       10, STRESS PERIOD       19

 CLN CONC WILL BE SAVED ON UNIT  188 AT END OF TIME STEP  10, STRESS PERIOD   19
1
  VOLUMETRIC BUDGET FOR ENTIRE MODEL AT END OF TIME STEP      10 IN STRESS PERIOD      19
  ---------------------------------------------------------------------------------------

     CUMULATIVE VOLUMES      L**3       RATES FOR THIS TIME STEP      L**3/T
     ------------------                 ------------------------

           IN:                                      IN:
           ---                                      ---
        MASS STORAGE =         285.0000          MASS STORAGE =           0.5000
    CNST H MASS FLUX =           0.0000      CNST H MASS FLUX =           0.0000
      WELL MASS FLUX =           0.0000        WELL MASS FLUX =           0.0000

            TOTAL IN =         285.0000              TOTAL IN =           0.5000

          OUT:                                     OUT:
          ----                                     ----
        MASS STORAGE =           0.2827          MASS STORAGE =       9.0758E-11
    CNST H MASS FLUX =           0.0000      CNST H MASS FLUX =           0.0000
      WELL MASS FLUX =         284.7173        WELL MASS FLUX =           0.5000

           TOTAL OUT =         285.0000             TOTAL OUT =           0.5000

            IN - OUT =       4.8158E-10              IN - OUT =      -9.0759E-11

 PERCENT DISCREPANCY =           0.00     PERCENT DISCREPANCY =          -0.00






          TIME SUMMARY AT END OF TIME STEP        10 IN STRESS PERIOD        19
                    SECONDS     MINUTES      HOURS       DAYS        YEARS
                    -----------------------------------------------------------
   TIME STEP LENGTH 5.15209E+05  8586.8      143.11      5.9631     1.63260E-02
 STRESS PERIOD TIME 2.59200E+06  43200.      720.00      30.000     8.21355E-02
         TOTAL TIME 4.92480E+07 8.20800E+05  13680.      570.00      1.5606    
1
1
                            STRESS PERIOD NO.   20, LENGTH =   30.00000    
                            -----------------------------------------------

                              NUMBER OF TIME STEPS =        10

                               MULTIPLIER FOR DELT =     1.200

                            INITIAL TIME STEP SIZE =   1.155682    

 WEL -- WELL PACKAGE, VERSION 7, 5/2/2005 INPUT READ FROM UNIT   12

 WELL NO.  CLN-NODE       STRESS FACTOR         C01             
 ---------------------------------------------------------------
        1            3      -5.000           0.000           0.000    

      1 WELL 
 -------------------------------------------------------------------------------------
 
 SOLVING FOR HEAD 

 Outer-Iteration  Inner-Iteration  Backtracking  Number of        Incoming       Outgoing  Maximum HeadChange      Maximum Head Change
     Number           Count           Flag       Backtracks       Residual       Residual           Value              Location
        1                             0             0          0.343486E-01     0.343486E-01
        1                5                                                                       -0.491910E-01               400           GWF-node number
        1                5                                                                       -0.467915E-01                 2           CLN-node number
        2                             0             0          0.575505E-08     0.575505E-08
        2                1                                                                        0.244161E-07               190           GWF-node number
        2                1                                                                        0.691842E-07                 1           CLN-node number


     2 CALLS TO SPARSE MATRIX SOLVER PACKAGE  IN FLOW TIME STEP       1 STRESS PERIOD      20

 TOTAL OF       2OUTER ITERATIONS
  MAXIMUM CHANGE FOR EACH ITERATION:
   MAX. CHANGE        NODE  MAX. CHANGE        NODE  MAX. CHANGE        NODE  MAX. CHANGE        NODE  MAX. CHANGE        NODE
 ------------------------------------------------------------------------------------------------------------------------------------
  -0.49191E-01,        400  0.24416E-07,        190

  MAXIMUM CHANGE FOR CLN NODE AT EACH ITERATION:
   MAX. CHANGE    CLN-CELL  MAX. CHANGE    CLN-CELL  MAX. CHANGE    CLN-CELL  MAX. CHANGE    CLN-CELL  MAX. CHANGE    CLN-CELL
 ------------------------------------------------------------------------------------------------------------------------------------
  -0.46792E-01,          2  0.69184E-07,          1

 HEAD/DRAWDOWN PRINTOUT FLAG = 1     TOTAL BUDGET PRINTOUT FLAG = 1
 CELL-BY-CELL FLOW TERM FLAG = 1
 CONCENTRATION PRINTOUT FLAG = 1

 OUTPUT FLAGS FOR ALL LAYERS ARE THE SAME:
   HEAD    DRAWDOWN  HEAD  DRAWDOWN    CONC    CONC
 PRINTOUT  PRINTOUT  SAVE    SAVE    PRINTOUT  SAVE
 ---------------------------------------------------
     0         0       1       1       0       1
 UBUDSVU SAVING "         STORAGE" ON UNIT  50 AT TIME STEP      1, STRESS PERIOD     20
 UBUDSV SAVING "     CLN STORAGE" ON UNIT 144 AT TIME STEP      1, STRESS PERIOD      20
 UBUDSVU SAVING "   CONSTANT HEAD" ON UNIT  50 AT TIME STEP      1, STRESS PERIOD     20
 UBUDSVU SAVING "   FLOW JA FACE " ON UNIT  50 AT TIME STEP      1, STRESS PERIOD     20
 UBUDSVU SAVING "             CLN" ON UNIT  50 AT TIME STEP      1, STRESS PERIOD     20
 UBUDSVU SAVING "  CLN CONST HEAD" ON UNIT 144 AT TIME STEP      1, STRESS PERIOD     20
 UBUDSVU SAVING "   FLOW CLN FACE" ON UNIT 144 AT TIME STEP      1, STRESS PERIOD     20
 UBUDSVU SAVING "             GWF" ON UNIT 144 AT TIME STEP      1, STRESS PERIOD     20
 UBUDSVU SAVING "           WELLS" ON UNIT  50 AT TIME STEP      1, STRESS PERIOD     20
 UBUDSVU SAVING "           WELLS" ON UNIT 144 AT TIME STEP      1, STRESS PERIOD     20

 HEAD WILL BE SAVED ON UNIT       30 AT END OF TIME STEP        1, STRESS PERIOD       20

 DRAWDOWN WILL BE SAVED ON UNIT   31 AT END OF TIME STEP   1, STRESS PERIOD   20

 CLN HEAD WILL BE SAVED ON UNIT   77 AT END OF TIME STEP   1, STRESS PERIOD   20
1
  VOLUMETRIC BUDGET FOR ENTIRE MODEL AT END OF TIME STEP       1 IN STRESS PERIOD      20
  ---------------------------------------------------------------------------------------

     CUMULATIVE VOLUMES      L**3       RATES FOR THIS TIME STEP      L**3/T
     ------------------                 ------------------------

           IN:                                      IN:
           ---                                      ---
             STORAGE =        2855.2706               STORAGE =           4.9971
         CLN STORAGE =           0.5078           CLN STORAGE =       2.8619E-03
       CONSTANT HEAD =           0.0000         CONSTANT HEAD =           0.0000
      CLN CONST HEAD =           0.0000        CLN CONST HEAD =           0.0000
               WELLS =           0.0000                 WELLS =           0.0000

            TOTAL IN =        2855.7783              TOTAL IN =           5.0000

          OUT:                                     OUT:
          ----                                     ----
             STORAGE =           0.0000               STORAGE =           0.0000
         CLN STORAGE =           0.0000           CLN STORAGE =           0.0000
       CONSTANT HEAD =           0.0000         CONSTANT HEAD =           0.0000
      CLN CONST HEAD =           0.0000        CLN CONST HEAD =           0.0000
               WELLS =        2855.7783                 WELLS =           5.0000

           TOTAL OUT =        2855.7783             TOTAL OUT =           5.0000

            IN - OUT =       2.2539E-05              IN - OUT =       3.7322E-08

 PERCENT DISCREPANCY =           0.00     PERCENT DISCREPANCY =           0.00






          TIME SUMMARY AT END OF TIME STEP         1 IN STRESS PERIOD        20
                    SECONDS     MINUTES      HOURS       DAYS        YEARS
                    -----------------------------------------------------------
   TIME STEP LENGTH  99851.      1664.2      27.736      1.1557     3.16409E-03
 STRESS PERIOD TIME  99851.      1664.2      27.736      1.1557     3.16409E-03
         TOTAL TIME 4.93478E+07 8.22464E+05  13708.      571.16      1.5637    
1
 ------------------------------------------------------------------------------------------------------------
 
 SOLVING FOR TRANSPORT 

 ------------------------------------------------------------------------------------------------------------------------
     1 CALLS TO SPARSE MATRIX SOLVER PACKAGE IN TRANSPORT TIME STEP       1 STRESS PERIOD      20 SPECIES  1

 TOTAL OF       1OUTER ITERATIONS
  MAXIMUM CHANGE FOR EACH ITERATION:
   MAX. CHANGE        NODE  MAX. CHANGE        NODE  MAX. CHANGE        NODE  MAX. CHANGE        NODE  MAX. CHANGE        NODE
 ------------------------------------------------------------------------------------------------------------------------------------
  -0.67620E-12,        191

  MAXIMUM CHANGE FOR CLN NODE AT EACH ITERATION:
   MAX. CHANGE    CLN-CELL  MAX. CHANGE    CLN-CELL  MAX. CHANGE    CLN-CELL  MAX. CHANGE    CLN-CELL  MAX. CHANGE    CLN-CELL
 ------------------------------------------------------------------------------------------------------------------------------------
   0.10918E-08,          2
     TRANSPORT SOLUTION COMPLETE FOR COMPONENT SPECIES NUMBER    1
     ------------------------------------------------------------
 UBUDSVU SAVING "    MASS STORAGE" ON UNIT 145 AT TIME STEP      1, STRESS PERIOD     20
 UBUDSVU SAVING "CLN MASS STORAGE" ON UNIT 145 AT TIME STEP      1, STRESS PERIOD     20
 UBUDSVU SAVING "CNST H MASS FLUX" ON UNIT 145 AT TIME STEP      1, STRESS PERIOD     20
 UBUDSVU SAVING "  WELL MASS FLUX" ON UNIT 145 AT TIME STEP      1, STRESS PERIOD     20

 TRANSPORT SOLUTION COMPLETE FOR ALL SPECIES, SORTING OUTPUT FOR CONCENTRATIONS AND MASS BALANCE
 ----------------------------------------------------------------------------------------------------
     TRANSPORT OUTPUT FOR COMPONENT SPECIES NUMBER    1
     ------------------------------------------------------------

 CONC WILL BE SAVED ON UNIT  132 AT END OF TIME STEP        1, STRESS PERIOD       20

 CLN CONC WILL BE SAVED ON UNIT  188 AT END OF TIME STEP   1, STRESS PERIOD   20
1
  VOLUMETRIC BUDGET FOR ENTIRE MODEL AT END OF TIME STEP       1 IN STRESS PERIOD      20
  ---------------------------------------------------------------------------------------

     CUMULATIVE VOLUMES      L**3       RATES FOR THIS TIME STEP      L**3/T
     ------------------                 ------------------------

           IN:                                      IN:
           ---                                      ---
        MASS STORAGE =         285.5778          MASS STORAGE =           0.5000
    CNST H MASS FLUX =           0.0000      CNST H MASS FLUX =           0.0000
      WELL MASS FLUX =           0.0000        WELL MASS FLUX =           0.0000

            TOTAL IN =         285.5778              TOTAL IN =           0.5000

          OUT:                                     OUT:
          ----                                     ----
        MASS STORAGE =           0.2827          MASS STORAGE =       5.0935E-10
    CNST H MASS FLUX =           0.0000      CNST H MASS FLUX =           0.0000
      WELL MASS FLUX =         285.2951        WELL MASS FLUX =           0.5000

           TOTAL OUT =         285.5778             TOTAL OUT =           0.5000

            IN - OUT =       4.8152E-10              IN - OUT =      -5.0935E-10

 PERCENT DISCREPANCY =           0.00     PERCENT DISCREPANCY =          -0.00






          TIME SUMMARY AT END OF TIME STEP         1 IN STRESS PERIOD        20
                    SECONDS     MINUTES      HOURS       DAYS        YEARS
                    -----------------------------------------------------------
   TIME STEP LENGTH  99851.      1664.2      27.736      1.1557     3.16409E-03
 STRESS PERIOD TIME  99851.      1664.2      27.736      1.1557     3.16409E-03
         TOTAL TIME 4.93478E+07 8.22464E+05  13708.      571.16      1.5637    
1
 -------------------------------------------------------------------------------------
 
 SOLVING FOR HEAD 

 Outer-Iteration  Inner-Iteration  Backtracking  Number of        Incoming       Outgoing  Maximum HeadChange      Maximum Head Change
     Number           Count           Flag       Backtracks       Residual       Residual           Value              Location
        1                             0             0          0.343346E-01     0.343346E-01
        1                5                                                                       -0.589988E-01               400           GWF-node number
        1                5                                                                       -0.561248E-01                 3           CLN-node number
        2                             0             0          0.120621E-07     0.120621E-07
        2                1                                                                       -0.427869E-07               190           GWF-node number
        2                1                                                                       -0.112552E-06                 3           CLN-node number
     2 CALLS TO SPARSE MATRIX SOLVER PACKAGE  IN FLOW TIME STEP       2 STRESS PERIOD      20

 TOTAL OF       2OUTER ITERATIONS
  MAXIMUM CHANGE FOR EACH ITERATION:
   MAX. CHANGE        NODE  MAX. CHANGE        NODE  MAX. CHANGE        NODE  MAX. CHANGE        NODE  MAX. CHANGE        NODE
 ------------------------------------------------------------------------------------------------------------------------------------
  -0.58999E-01,        400 -0.42787E-07,        190

  MAXIMUM CHANGE FOR CLN NODE AT EACH ITERATION:
   MAX. CHANGE    CLN-CELL  MAX. CHANGE    CLN-CELL  MAX. CHANGE    CLN-CELL  MAX. CHANGE    CLN-CELL  MAX. CHANGE    CLN-CELL
 ------------------------------------------------------------------------------------------------------------------------------------
  -0.56125E-01,          3 -0.11255E-06,          3

 HEAD/DRAWDOWN PRINTOUT FLAG = 1     TOTAL BUDGET PRINTOUT FLAG = 1
 CELL-BY-CELL FLOW TERM FLAG = 1
 CONCENTRATION PRINTOUT FLAG = 1

 OUTPUT FLAGS FOR ALL LAYERS ARE THE SAME:
   HEAD    DRAWDOWN  HEAD  DRAWDOWN    CONC    CONC
 PRINTOUT  PRINTOUT  SAVE    SAVE    PRINTOUT  SAVE
 ---------------------------------------------------
     0         0       1       1       0       1
 UBUDSVU SAVING "         STORAGE" ON UNIT  50 AT TIME STEP      2, STRESS PERIOD     20
 UBUDSV SAVING "     CLN STORAGE" ON UNIT 144 AT TIME STEP      2, STRESS PERIOD      20
 UBUDSVU SAVING "   CONSTANT HEAD" ON UNIT  50 AT TIME STEP      2, STRESS PERIOD     20
 UBUDSVU SAVING "   FLOW JA FACE " ON UNIT  50 AT TIME STEP      2, STRESS PERIOD     20
 UBUDSVU SAVING "             CLN" ON UNIT  50 AT TIME STEP      2, STRESS PERIOD     20
 UBUDSVU SAVING "  CLN CONST HEAD" ON UNIT 144 AT TIME STEP      2, STRESS PERIOD     20
 UBUDSVU SAVING "   FLOW CLN FACE" ON UNIT 144 AT TIME STEP      2, STRESS PERIOD     20
 UBUDSVU SAVING "             GWF" ON UNIT 144 AT TIME STEP      2, STRESS PERIOD     20
 UBUDSVU SAVING "           WELLS" ON UNIT  50 AT TIME STEP      2, STRESS PERIOD     20
 UBUDSVU SAVING "           WELLS" ON UNIT 144 AT TIME STEP      2, STRESS PERIOD     20

 HEAD WILL BE SAVED ON UNIT       30 AT END OF TIME STEP        2, STRESS PERIOD       20

 DRAWDOWN WILL BE SAVED ON UNIT   31 AT END OF TIME STEP   2, STRESS PERIOD   20

 CLN HEAD WILL BE SAVED ON UNIT   77 AT END OF TIME STEP   2, STRESS PERIOD   20
1
  VOLUMETRIC BUDGET FOR ENTIRE MODEL AT END OF TIME STEP       2 IN STRESS PERIOD      20
  ---------------------------------------------------------------------------------------

     CUMULATIVE VOLUMES      L**3       RATES FOR THIS TIME STEP      L**3/T
     ------------------                 ------------------------

           IN:                                      IN:
           ---                                      ---
             STORAGE =        2862.2007               STORAGE =           4.9971
         CLN STORAGE =           0.5117           CLN STORAGE =       2.8607E-03
       CONSTANT HEAD =           0.0000         CONSTANT HEAD =           0.0000
      CLN CONST HEAD =           0.0000        CLN CONST HEAD =           0.0000
               WELLS =           0.0000                 WELLS =           0.0000

            TOTAL IN =        2862.7124              TOTAL IN =           5.0000

          OUT:                                     OUT:
          ----                                     ----
             STORAGE =           0.0000               STORAGE =           0.0000
         CLN STORAGE =           0.0000           CLN STORAGE =           0.0000
       CONSTANT HEAD =           0.0000         CONSTANT HEAD =           0.0000
      CLN CONST HEAD =           0.0000        CLN CONST HEAD =           0.0000
               WELLS =        2862.7124                 WELLS =           5.0000

           TOTAL OUT =        2862.7124             TOTAL OUT =           5.0000

            IN - OUT =       2.2582E-05              IN - OUT =       3.0364E-08

 PERCENT DISCREPANCY =           0.00     PERCENT DISCREPANCY =           0.00






          TIME SUMMARY AT END OF TIME STEP         2 IN STRESS PERIOD        20
                    SECONDS     MINUTES      HOURS       DAYS        YEARS
                    -----------------------------------------------------------
   TIME STEP LENGTH 1.19821E+05  1997.0      33.284      1.3868     3.79690E-03
 STRESS PERIOD TIME 2.19672E+05  3661.2      61.020      2.5425     6.96099E-03
         TOTAL TIME 4.94677E+07 8.24461E+05  13741.      572.54      1.5675    
1
 ------------------------------------------------------------------------------------------------------------
 
 SOLVING FOR TRANSPORT 

 ------------------------------------------------------------------------------------------------------------------------
     1 CALLS TO SPARSE MATRIX SOLVER PACKAGE IN TRANSPORT TIME STEP       2 STRESS PERIOD      20 SPECIES  1

 TOTAL OF       1OUTER ITERATIONS
  MAXIMUM CHANGE FOR EACH ITERATION:
   MAX. CHANGE        NODE  MAX. CHANGE        NODE  MAX. CHANGE        NODE  MAX. CHANGE        NODE  MAX. CHANGE        NODE
 ------------------------------------------------------------------------------------------------------------------------------------
  -0.10098E-10,        191

  MAXIMUM CHANGE FOR CLN NODE AT EACH ITERATION:
   MAX. CHANGE    CLN-CELL  MAX. CHANGE    CLN-CELL  MAX. CHANGE    CLN-CELL  MAX. CHANGE    CLN-CELL  MAX. CHANGE    CLN-CELL
 ------------------------------------------------------------------------------------------------------------------------------------
  -0.12513E-08,          1
     TRANSPORT SOLUTION COMPLETE FOR COMPONENT SPECIES NUMBER    1
     ------------------------------------------------------------
 UBUDSVU SAVING "    MASS STORAGE" ON UNIT 145 AT TIME STEP      2, STRESS PERIOD     20
 UBUDSVU SAVING "CLN MASS STORAGE" ON UNIT 145 AT TIME STEP      2, STRESS PERIOD     20
 UBUDSVU SAVING "CNST H MASS FLUX" ON UNIT 145 AT TIME STEP      2, STRESS PERIOD     20
 UBUDSVU SAVING "  WELL MASS FLUX" ON UNIT 145 AT TIME STEP      2, STRESS PERIOD     20

 TRANSPORT SOLUTION COMPLETE FOR ALL SPECIES, SORTING OUTPUT FOR CONCENTRATIONS AND MASS BALANCE
 ----------------------------------------------------------------------------------------------------
     TRANSPORT OUTPUT FOR COMPONENT SPECIES NUMBER    1
     ------------------------------------------------------------

 CONC WILL BE SAVED ON UNIT  132 AT END OF TIME STEP        2, STRESS PERIOD       20

 CLN CONC WILL BE SAVED ON UNIT  188 AT END OF TIME STEP   2, STRESS PERIOD   20
1
  VOLUMETRIC BUDGET FOR ENTIRE MODEL AT END OF TIME STEP       2 IN STRESS PERIOD      20
  ---------------------------------------------------------------------------------------

     CUMULATIVE VOLUMES      L**3       RATES FOR THIS TIME STEP      L**3/T
     ------------------                 ------------------------

           IN:                                      IN:
           ---                                      ---
        MASS STORAGE =         286.2713          MASS STORAGE =           0.5000
    CNST H MASS FLUX =           0.0000      CNST H MASS FLUX =           0.0000
      WELL MASS FLUX =           0.0000        WELL MASS FLUX =           0.0000

            TOTAL IN =         286.2713              TOTAL IN =           0.5000

          OUT:                                     OUT:
          ----                                     ----
        MASS STORAGE =           0.2827          MASS STORAGE =       3.8214E-10
    CNST H MASS FLUX =           0.0000      CNST H MASS FLUX =           0.0000
      WELL MASS FLUX =         285.9885        WELL MASS FLUX =           0.5000

           TOTAL OUT =         286.2713             TOTAL OUT =           0.5000

            IN - OUT =       4.8078E-10              IN - OUT =      -3.8214E-10

 PERCENT DISCREPANCY =           0.00     PERCENT DISCREPANCY =          -0.00






          TIME SUMMARY AT END OF TIME STEP         2 IN STRESS PERIOD        20
                    SECONDS     MINUTES      HOURS       DAYS        YEARS
                    -----------------------------------------------------------
   TIME STEP LENGTH 1.19821E+05  1997.0      33.284      1.3868     3.79690E-03
 STRESS PERIOD TIME 2.19672E+05  3661.2      61.020      2.5425     6.96099E-03
         TOTAL TIME 4.94677E+07 8.24461E+05  13741.      572.54      1.5675    
1
 -------------------------------------------------------------------------------------
 
 SOLVING FOR HEAD 

 Outer-Iteration  Inner-Iteration  Backtracking  Number of        Incoming       Outgoing  Maximum HeadChange      Maximum Head Change
     Number           Count           Flag       Backtracks       Residual       Residual           Value              Location
        1                             0             0          0.343179E-01     0.343179E-01
        1                5                                                                       -0.707550E-01               400           GWF-node number
        1                5                                                                       -0.673141E-01                 3           CLN-node number
        2                             0             0          0.254596E-07     0.254596E-07
        2                1                                                                       -0.142089E-07               406           GWF-node number
        2                1                                                                        0.263872E-07                 1           CLN-node number
     2 CALLS TO SPARSE MATRIX SOLVER PACKAGE  IN FLOW TIME STEP       3 STRESS PERIOD      20

 TOTAL OF       2OUTER ITERATIONS
  MAXIMUM CHANGE FOR EACH ITERATION:
   MAX. CHANGE        NODE  MAX. CHANGE        NODE  MAX. CHANGE        NODE  MAX. CHANGE        NODE  MAX. CHANGE        NODE
 ------------------------------------------------------------------------------------------------------------------------------------
  -0.70755E-01,        400 -0.14209E-07,        406

  MAXIMUM CHANGE FOR CLN NODE AT EACH ITERATION:
   MAX. CHANGE    CLN-CELL  MAX. CHANGE    CLN-CELL  MAX. CHANGE    CLN-CELL  MAX. CHANGE    CLN-CELL  MAX. CHANGE    CLN-CELL
 ------------------------------------------------------------------------------------------------------------------------------------
  -0.67314E-01,          3  0.26387E-07,          1

 HEAD/DRAWDOWN PRINTOUT FLAG = 1     TOTAL BUDGET PRINTOUT FLAG = 1
 CELL-BY-CELL FLOW TERM FLAG = 1
 CONCENTRATION PRINTOUT FLAG = 1

 OUTPUT FLAGS FOR ALL LAYERS ARE THE SAME:
   HEAD    DRAWDOWN  HEAD  DRAWDOWN    CONC    CONC
 PRINTOUT  PRINTOUT  SAVE    SAVE    PRINTOUT  SAVE
 ---------------------------------------------------
     0         0       1       1       0       1
 UBUDSVU SAVING "         STORAGE" ON UNIT  50 AT TIME STEP      3, STRESS PERIOD     20
 UBUDSV SAVING "     CLN STORAGE" ON UNIT 144 AT TIME STEP      3, STRESS PERIOD      20
 UBUDSVU SAVING "   CONSTANT HEAD" ON UNIT  50 AT TIME STEP      3, STRESS PERIOD     20
 UBUDSVU SAVING "   FLOW JA FACE " ON UNIT  50 AT TIME STEP      3, STRESS PERIOD     20
 UBUDSVU SAVING "             CLN" ON UNIT  50 AT TIME STEP      3, STRESS PERIOD     20
 UBUDSVU SAVING "  CLN CONST HEAD" ON UNIT 144 AT TIME STEP      3, STRESS PERIOD     20
 UBUDSVU SAVING "   FLOW CLN FACE" ON UNIT 144 AT TIME STEP      3, STRESS PERIOD     20
 UBUDSVU SAVING "             GWF" ON UNIT 144 AT TIME STEP      3, STRESS PERIOD     20
 UBUDSVU SAVING "           WELLS" ON UNIT  50 AT TIME STEP      3, STRESS PERIOD     20
 UBUDSVU SAVING "           WELLS" ON UNIT 144 AT TIME STEP      3, STRESS PERIOD     20

 HEAD WILL BE SAVED ON UNIT       30 AT END OF TIME STEP        3, STRESS PERIOD       20

 DRAWDOWN WILL BE SAVED ON UNIT   31 AT END OF TIME STEP   3, STRESS PERIOD   20

 CLN HEAD WILL BE SAVED ON UNIT   77 AT END OF TIME STEP   3, STRESS PERIOD   20
1
  VOLUMETRIC BUDGET FOR ENTIRE MODEL AT END OF TIME STEP       3 IN STRESS PERIOD      20
  ---------------------------------------------------------------------------------------

     CUMULATIVE VOLUMES      L**3       RATES FOR THIS TIME STEP      L**3/T
     ------------------                 ------------------------

           IN:                                      IN:
           ---                                      ---
             STORAGE =        2870.5168               STORAGE =           4.9971
         CLN STORAGE =           0.5165           CLN STORAGE =       2.8592E-03
       CONSTANT HEAD =           0.0000         CONSTANT HEAD =           0.0000
      CLN CONST HEAD =           0.0000        CLN CONST HEAD =           0.0000
               WELLS =           0.0000                 WELLS =           0.0000

            TOTAL IN =        2871.0333              TOTAL IN =           5.0000

          OUT:                                     OUT:
          ----                                     ----
             STORAGE =           0.0000               STORAGE =           0.0000
         CLN STORAGE =           0.0000           CLN STORAGE =           0.0000
       CONSTANT HEAD =           0.0000         CONSTANT HEAD =           0.0000
      CLN CONST HEAD =           0.0000        CLN CONST HEAD =           0.0000
               WELLS =        2871.0333                 WELLS =           5.0000

           TOTAL OUT =        2871.0333             TOTAL OUT =           5.0000

            IN - OUT =       2.2620E-05              IN - OUT =       2.3024E-08

 PERCENT DISCREPANCY =           0.00     PERCENT DISCREPANCY =           0.00






          TIME SUMMARY AT END OF TIME STEP         3 IN STRESS PERIOD        20
                    SECONDS     MINUTES      HOURS       DAYS        YEARS
                    -----------------------------------------------------------
   TIME STEP LENGTH 1.43785E+05  2396.4      39.940      1.6642     4.55628E-03
 STRESS PERIOD TIME 3.63458E+05  6057.6      100.96      4.2067     1.15173E-02
         TOTAL TIME 4.96115E+07 8.26858E+05  13781.      574.21      1.5721    
1
 ------------------------------------------------------------------------------------------------------------
 
 SOLVING FOR TRANSPORT 

 ------------------------------------------------------------------------------------------------------------------------
     1 CALLS TO SPARSE MATRIX SOLVER PACKAGE IN TRANSPORT TIME STEP       3 STRESS PERIOD      20 SPECIES  1

 TOTAL OF       1OUTER ITERATIONS
  MAXIMUM CHANGE FOR EACH ITERATION:
   MAX. CHANGE        NODE  MAX. CHANGE        NODE  MAX. CHANGE        NODE  MAX. CHANGE        NODE  MAX. CHANGE        NODE
 ------------------------------------------------------------------------------------------------------------------------------------
  -0.33678E-11,        191

  MAXIMUM CHANGE FOR CLN NODE AT EACH ITERATION:
   MAX. CHANGE    CLN-CELL  MAX. CHANGE    CLN-CELL  MAX. CHANGE    CLN-CELL  MAX. CHANGE    CLN-CELL  MAX. CHANGE    CLN-CELL
 ------------------------------------------------------------------------------------------------------------------------------------
   0.81166E-09,          1
     TRANSPORT SOLUTION COMPLETE FOR COMPONENT SPECIES NUMBER    1
     ------------------------------------------------------------
 UBUDSVU SAVING "    MASS STORAGE" ON UNIT 145 AT TIME STEP      3, STRESS PERIOD     20
 UBUDSVU SAVING "CLN MASS STORAGE" ON UNIT 145 AT TIME STEP      3, STRESS PERIOD     20
 UBUDSVU SAVING "CNST H MASS FLUX" ON UNIT 145 AT TIME STEP      3, STRESS PERIOD     20
 UBUDSVU SAVING "  WELL MASS FLUX" ON UNIT 145 AT TIME STEP      3, STRESS PERIOD     20

 TRANSPORT SOLUTION COMPLETE FOR ALL SPECIES, SORTING OUTPUT FOR CONCENTRATIONS AND MASS BALANCE
 ----------------------------------------------------------------------------------------------------
     TRANSPORT OUTPUT FOR COMPONENT SPECIES NUMBER    1
     ------------------------------------------------------------

 CONC WILL BE SAVED ON UNIT  132 AT END OF TIME STEP        3, STRESS PERIOD       20

 CLN CONC WILL BE SAVED ON UNIT  188 AT END OF TIME STEP   3, STRESS PERIOD   20
1
  VOLUMETRIC BUDGET FOR ENTIRE MODEL AT END OF TIME STEP       3 IN STRESS PERIOD      20
  ---------------------------------------------------------------------------------------

     CUMULATIVE VOLUMES      L**3       RATES FOR THIS TIME STEP      L**3/T
     ------------------                 ------------------------

           IN:                                      IN:
           ---                                      ---
        MASS STORAGE =         287.1033          MASS STORAGE =           0.5000
    CNST H MASS FLUX =           0.0000      CNST H MASS FLUX =           0.0000
      WELL MASS FLUX =           0.0000        WELL MASS FLUX =           0.0000

            TOTAL IN =         287.1033              TOTAL IN =           0.5000

          OUT:                                     OUT:
          ----                                     ----
        MASS STORAGE =           0.2827          MASS STORAGE =           0.0000
    CNST H MASS FLUX =           0.0000      CNST H MASS FLUX =           0.0000
      WELL MASS FLUX =         286.8206        WELL MASS FLUX =           0.5000

           TOTAL OUT =         287.1033             TOTAL OUT =           0.5000

            IN - OUT =       4.8021E-10              IN - OUT =           0.0000

 PERCENT DISCREPANCY =           0.00     PERCENT DISCREPANCY =           0.00






          TIME SUMMARY AT END OF TIME STEP         3 IN STRESS PERIOD        20
                    SECONDS     MINUTES      HOURS       DAYS        YEARS
                    -----------------------------------------------------------
   TIME STEP LENGTH 1.43785E+05  2396.4      39.940      1.6642     4.55628E-03
 STRESS PERIOD TIME 3.63458E+05  6057.6      100.96      4.2067     1.15173E-02
         TOTAL TIME 4.96115E+07 8.26858E+05  13781.      574.21      1.5721    
1
 -------------------------------------------------------------------------------------
 
 SOLVING FOR HEAD 

 Outer-Iteration  Inner-Iteration  Backtracking  Number of        Incoming       Outgoing  Maximum HeadChange      Maximum Head Change
     Number           Count           Flag       Backtracks       Residual       Residual           Value              Location
        1                             0             0          0.342980E-01     0.342980E-01
        1                5                                                                       -0.848434E-01               400           GWF-node number
        1                5                                                                       -0.807257E-01                 3           CLN-node number
        2                             0             0          0.537941E-07     0.537941E-07
        2                1                                                                        0.417841E-07               470           GWF-node number
        2                1                                                                        0.130908E-06                 1           CLN-node number
     2 CALLS TO SPARSE MATRIX SOLVER PACKAGE  IN FLOW TIME STEP       4 STRESS PERIOD      20

 TOTAL OF       2OUTER ITERATIONS
  MAXIMUM CHANGE FOR EACH ITERATION:
   MAX. CHANGE        NODE  MAX. CHANGE        NODE  MAX. CHANGE        NODE  MAX. CHANGE        NODE  MAX. CHANGE        NODE
 ------------------------------------------------------------------------------------------------------------------------------------
  -0.84843E-01,        400  0.41784E-07,        470

  MAXIMUM CHANGE FOR CLN NODE AT EACH ITERATION:
   MAX. CHANGE    CLN-CELL  MAX. CHANGE    CLN-CELL  MAX. CHANGE    CLN-CELL  MAX. CHANGE    CLN-CELL  MAX. CHANGE    CLN-CELL
 ------------------------------------------------------------------------------------------------------------------------------------
  -0.80726E-01,          3  0.13091E-06,          1

 HEAD/DRAWDOWN PRINTOUT FLAG = 1     TOTAL BUDGET PRINTOUT FLAG = 1
 CELL-BY-CELL FLOW TERM FLAG = 1
 CONCENTRATION PRINTOUT FLAG = 1

 OUTPUT FLAGS FOR ALL LAYERS ARE THE SAME:
   HEAD    DRAWDOWN  HEAD  DRAWDOWN    CONC    CONC
 PRINTOUT  PRINTOUT  SAVE    SAVE    PRINTOUT  SAVE
 ---------------------------------------------------
     0         0       1       1       0       1
 UBUDSVU SAVING "         STORAGE" ON UNIT  50 AT TIME STEP      4, STRESS PERIOD     20
 UBUDSV SAVING "     CLN STORAGE" ON UNIT 144 AT TIME STEP      4, STRESS PERIOD      20
 UBUDSVU SAVING "   CONSTANT HEAD" ON UNIT  50 AT TIME STEP      4, STRESS PERIOD     20
 UBUDSVU SAVING "   FLOW JA FACE " ON UNIT  50 AT TIME STEP      4, STRESS PERIOD     20
 UBUDSVU SAVING "             CLN" ON UNIT  50 AT TIME STEP      4, STRESS PERIOD     20
 UBUDSVU SAVING "  CLN CONST HEAD" ON UNIT 144 AT TIME STEP      4, STRESS PERIOD     20
 UBUDSVU SAVING "   FLOW CLN FACE" ON UNIT 144 AT TIME STEP      4, STRESS PERIOD     20
 UBUDSVU SAVING "             GWF" ON UNIT 144 AT TIME STEP      4, STRESS PERIOD     20
 UBUDSVU SAVING "           WELLS" ON UNIT  50 AT TIME STEP      4, STRESS PERIOD     20
 UBUDSVU SAVING "           WELLS" ON UNIT 144 AT TIME STEP      4, STRESS PERIOD     20

 HEAD WILL BE SAVED ON UNIT       30 AT END OF TIME STEP        4, STRESS PERIOD       20

 DRAWDOWN WILL BE SAVED ON UNIT   31 AT END OF TIME STEP   4, STRESS PERIOD   20

 CLN HEAD WILL BE SAVED ON UNIT   77 AT END OF TIME STEP   4, STRESS PERIOD   20
1
  VOLUMETRIC BUDGET FOR ENTIRE MODEL AT END OF TIME STEP       4 IN STRESS PERIOD      20
  ---------------------------------------------------------------------------------------

     CUMULATIVE VOLUMES      L**3       RATES FOR THIS TIME STEP      L**3/T
     ------------------                 ------------------------

           IN:                                      IN:
           ---                                      ---
             STORAGE =        2880.4962               STORAGE =           4.9971
         CLN STORAGE =           0.5222           CLN STORAGE =       2.8573E-03
       CONSTANT HEAD =           0.0000         CONSTANT HEAD =           0.0000
      CLN CONST HEAD =           0.0000        CLN CONST HEAD =           0.0000
               WELLS =           0.0000                 WELLS =           0.0000

            TOTAL IN =        2881.0184              TOTAL IN =           5.0000

          OUT:                                     OUT:
          ----                                     ----
             STORAGE =           0.0000               STORAGE =           0.0000
         CLN STORAGE =           0.0000           CLN STORAGE =           0.0000
       CONSTANT HEAD =           0.0000         CONSTANT HEAD =           0.0000
      CLN CONST HEAD =           0.0000        CLN CONST HEAD =           0.0000
               WELLS =        2881.0184                 WELLS =           5.0000

           TOTAL OUT =        2881.0184             TOTAL OUT =           5.0000

            IN - OUT =       2.2621E-05              IN - OUT =       4.4637E-10

 PERCENT DISCREPANCY =           0.00     PERCENT DISCREPANCY =           0.00






          TIME SUMMARY AT END OF TIME STEP         4 IN STRESS PERIOD        20
                    SECONDS     MINUTES      HOURS       DAYS        YEARS
                    -----------------------------------------------------------
   TIME STEP LENGTH 1.72542E+05  2875.7      47.928      1.9970     5.46754E-03
 STRESS PERIOD TIME 5.36000E+05  8933.3      148.89      6.2037     1.69848E-02
         TOTAL TIME 4.97840E+07 8.29733E+05  13829.      576.20      1.5776    
1
 ------------------------------------------------------------------------------------------------------------
 
 SOLVING FOR TRANSPORT 

 ------------------------------------------------------------------------------------------------------------------------
     1 CALLS TO SPARSE MATRIX SOLVER PACKAGE IN TRANSPORT TIME STEP       4 STRESS PERIOD      20 SPECIES  1

 TOTAL OF       1OUTER ITERATIONS
  MAXIMUM CHANGE FOR EACH ITERATION:
   MAX. CHANGE        NODE  MAX. CHANGE        NODE  MAX. CHANGE        NODE  MAX. CHANGE        NODE  MAX. CHANGE        NODE
 ------------------------------------------------------------------------------------------------------------------------------------
   0.41915E-11,        191

  MAXIMUM CHANGE FOR CLN NODE AT EACH ITERATION:
   MAX. CHANGE    CLN-CELL  MAX. CHANGE    CLN-CELL  MAX. CHANGE    CLN-CELL  MAX. CHANGE    CLN-CELL  MAX. CHANGE    CLN-CELL
 ------------------------------------------------------------------------------------------------------------------------------------
  -0.77006E-09,          3
     TRANSPORT SOLUTION COMPLETE FOR COMPONENT SPECIES NUMBER    1
     ------------------------------------------------------------
 UBUDSVU SAVING "    MASS STORAGE" ON UNIT 145 AT TIME STEP      4, STRESS PERIOD     20
 UBUDSVU SAVING "CLN MASS STORAGE" ON UNIT 145 AT TIME STEP      4, STRESS PERIOD     20
 UBUDSVU SAVING "CNST H MASS FLUX" ON UNIT 145 AT TIME STEP      4, STRESS PERIOD     20
 UBUDSVU SAVING "  WELL MASS FLUX" ON UNIT 145 AT TIME STEP      4, STRESS PERIOD     20

 TRANSPORT SOLUTION COMPLETE FOR ALL SPECIES, SORTING OUTPUT FOR CONCENTRATIONS AND MASS BALANCE
 ----------------------------------------------------------------------------------------------------
     TRANSPORT OUTPUT FOR COMPONENT SPECIES NUMBER    1
     ------------------------------------------------------------

 CONC WILL BE SAVED ON UNIT  132 AT END OF TIME STEP        4, STRESS PERIOD       20

 CLN CONC WILL BE SAVED ON UNIT  188 AT END OF TIME STEP   4, STRESS PERIOD   20
1
  VOLUMETRIC BUDGET FOR ENTIRE MODEL AT END OF TIME STEP       4 IN STRESS PERIOD      20
  ---------------------------------------------------------------------------------------

     CUMULATIVE VOLUMES      L**3       RATES FOR THIS TIME STEP      L**3/T
     ------------------                 ------------------------

           IN:                                      IN:
           ---                                      ---
        MASS STORAGE =         288.1019          MASS STORAGE =           0.5000
    CNST H MASS FLUX =           0.0000      CNST H MASS FLUX =           0.0000
      WELL MASS FLUX =           0.0000        WELL MASS FLUX =           0.0000

            TOTAL IN =         288.1019              TOTAL IN =           0.5000

          OUT:                                     OUT:
          ----                                     ----
        MASS STORAGE =           0.2827          MASS STORAGE =           0.0000
    CNST H MASS FLUX =           0.0000      CNST H MASS FLUX =           0.0000
      WELL MASS FLUX =         287.8191        WELL MASS FLUX =           0.5000

           TOTAL OUT =         288.1019             TOTAL OUT =           0.5000

            IN - OUT =       4.8095E-10              IN - OUT =           0.0000

 PERCENT DISCREPANCY =           0.00     PERCENT DISCREPANCY =           0.00






          TIME SUMMARY AT END OF TIME STEP         4 IN STRESS PERIOD        20
                    SECONDS     MINUTES      HOURS       DAYS        YEARS
                    -----------------------------------------------------------
   TIME STEP LENGTH 1.72542E+05  2875.7      47.928      1.9970     5.46754E-03
 STRESS PERIOD TIME 5.36000E+05  8933.3      148.89      6.2037     1.69848E-02
         TOTAL TIME 4.97840E+07 8.29733E+05  13829.      576.20      1.5776    
1
 -------------------------------------------------------------------------------------
 
 SOLVING FOR HEAD 

 Outer-Iteration  Inner-Iteration  Backtracking  Number of        Incoming       Outgoing  Maximum HeadChange      Maximum Head Change
     Number           Count           Flag       Backtracks       Residual       Residual           Value              Location
        1                             0             0          0.342741E-01     0.342741E-01
        1                6                                                                       -0.101722                   400           GWF-node number
        1                6                                                                       -0.967975E-01                 2           CLN-node number
        2                             0             0          0.114111E-06     0.114111E-06
        2                1                                                                        0.175473E-07               190           GWF-node number
        2                1                                                                        0.464249E-07                 1           CLN-node number
     2 CALLS TO SPARSE MATRIX SOLVER PACKAGE  IN FLOW TIME STEP       5 STRESS PERIOD      20

 TOTAL OF       2OUTER ITERATIONS
  MAXIMUM CHANGE FOR EACH ITERATION:
   MAX. CHANGE        NODE  MAX. CHANGE        NODE  MAX. CHANGE        NODE  MAX. CHANGE        NODE  MAX. CHANGE        NODE
 ------------------------------------------------------------------------------------------------------------------------------------
  -0.10172    ,        400  0.17547E-07,        190

  MAXIMUM CHANGE FOR CLN NODE AT EACH ITERATION:
   MAX. CHANGE    CLN-CELL  MAX. CHANGE    CLN-CELL  MAX. CHANGE    CLN-CELL  MAX. CHANGE    CLN-CELL  MAX. CHANGE    CLN-CELL
 ------------------------------------------------------------------------------------------------------------------------------------
  -0.96797E-01,          2  0.46425E-07,          1

 HEAD/DRAWDOWN PRINTOUT FLAG = 1     TOTAL BUDGET PRINTOUT FLAG = 1
 CELL-BY-CELL FLOW TERM FLAG = 1
 CONCENTRATION PRINTOUT FLAG = 1

 OUTPUT FLAGS FOR ALL LAYERS ARE THE SAME:
   HEAD    DRAWDOWN  HEAD  DRAWDOWN    CONC    CONC
 PRINTOUT  PRINTOUT  SAVE    SAVE    PRINTOUT  SAVE
 ---------------------------------------------------
     0         0       1       1       0       1
 UBUDSVU SAVING "         STORAGE" ON UNIT  50 AT TIME STEP      5, STRESS PERIOD     20
 UBUDSV SAVING "     CLN STORAGE" ON UNIT 144 AT TIME STEP      5, STRESS PERIOD      20
 UBUDSVU SAVING "   CONSTANT HEAD" ON UNIT  50 AT TIME STEP      5, STRESS PERIOD     20
 UBUDSVU SAVING "   FLOW JA FACE " ON UNIT  50 AT TIME STEP      5, STRESS PERIOD     20
 UBUDSVU SAVING "             CLN" ON UNIT  50 AT TIME STEP      5, STRESS PERIOD     20
 UBUDSVU SAVING "  CLN CONST HEAD" ON UNIT 144 AT TIME STEP      5, STRESS PERIOD     20
 UBUDSVU SAVING "   FLOW CLN FACE" ON UNIT 144 AT TIME STEP      5, STRESS PERIOD     20
 UBUDSVU SAVING "             GWF" ON UNIT 144 AT TIME STEP      5, STRESS PERIOD     20
 UBUDSVU SAVING "           WELLS" ON UNIT  50 AT TIME STEP      5, STRESS PERIOD     20
 UBUDSVU SAVING "           WELLS" ON UNIT 144 AT TIME STEP      5, STRESS PERIOD     20

 HEAD WILL BE SAVED ON UNIT       30 AT END OF TIME STEP        5, STRESS PERIOD       20

 DRAWDOWN WILL BE SAVED ON UNIT   31 AT END OF TIME STEP   5, STRESS PERIOD   20

 CLN HEAD WILL BE SAVED ON UNIT   77 AT END OF TIME STEP   5, STRESS PERIOD   20
1
  VOLUMETRIC BUDGET FOR ENTIRE MODEL AT END OF TIME STEP       5 IN STRESS PERIOD      20
  ---------------------------------------------------------------------------------------

     CUMULATIVE VOLUMES      L**3       RATES FOR THIS TIME STEP      L**3/T
     ------------------                 ------------------------

           IN:                                      IN:
           ---                                      ---
             STORAGE =        2892.4715               STORAGE =           4.9971
         CLN STORAGE =           0.5290           CLN STORAGE =       2.8552E-03
       CONSTANT HEAD =           0.0000         CONSTANT HEAD =           0.0000
      CLN CONST HEAD =           0.0000        CLN CONST HEAD =           0.0000
               WELLS =           0.0000                 WELLS =           0.0000

            TOTAL IN =        2893.0005              TOTAL IN =           5.0000

          OUT:                                     OUT:
          ----                                     ----
             STORAGE =           0.0000               STORAGE =           0.0000
         CLN STORAGE =           0.0000           CLN STORAGE =           0.0000
       CONSTANT HEAD =           0.0000         CONSTANT HEAD =           0.0000
      CLN CONST HEAD =           0.0000        CLN CONST HEAD =           0.0000
               WELLS =        2893.0005                 WELLS =           5.0000

           TOTAL OUT =        2893.0005             TOTAL OUT =           5.0000

            IN - OUT =       2.2674E-05              IN - OUT =       2.2048E-08

 PERCENT DISCREPANCY =           0.00     PERCENT DISCREPANCY =           0.00






          TIME SUMMARY AT END OF TIME STEP         5 IN STRESS PERIOD        20
                    SECONDS     MINUTES      HOURS       DAYS        YEARS
                    -----------------------------------------------------------
   TIME STEP LENGTH 2.07051E+05  3450.8      57.514      2.3964     6.56105E-03
 STRESS PERIOD TIME 7.43051E+05  12384.      206.40      8.6001     2.35459E-02
         TOTAL TIME 4.99910E+07 8.33184E+05  13886.      578.60      1.5841    
1
 ------------------------------------------------------------------------------------------------------------
 
 SOLVING FOR TRANSPORT 

 ------------------------------------------------------------------------------------------------------------------------
     1 CALLS TO SPARSE MATRIX SOLVER PACKAGE IN TRANSPORT TIME STEP       5 STRESS PERIOD      20 SPECIES  1

 TOTAL OF       1OUTER ITERATIONS
  MAXIMUM CHANGE FOR EACH ITERATION:
   MAX. CHANGE        NODE  MAX. CHANGE        NODE  MAX. CHANGE        NODE  MAX. CHANGE        NODE  MAX. CHANGE        NODE
 ------------------------------------------------------------------------------------------------------------------------------------
  -0.27911E-11,        191

  MAXIMUM CHANGE FOR CLN NODE AT EACH ITERATION:
   MAX. CHANGE    CLN-CELL  MAX. CHANGE    CLN-CELL  MAX. CHANGE    CLN-CELL  MAX. CHANGE    CLN-CELL  MAX. CHANGE    CLN-CELL
 ------------------------------------------------------------------------------------------------------------------------------------
   0.76766E-09,          2
     TRANSPORT SOLUTION COMPLETE FOR COMPONENT SPECIES NUMBER    1
     ------------------------------------------------------------
 UBUDSVU SAVING "    MASS STORAGE" ON UNIT 145 AT TIME STEP      5, STRESS PERIOD     20
 UBUDSVU SAVING "CLN MASS STORAGE" ON UNIT 145 AT TIME STEP      5, STRESS PERIOD     20
 UBUDSVU SAVING "CNST H MASS FLUX" ON UNIT 145 AT TIME STEP      5, STRESS PERIOD     20
 UBUDSVU SAVING "  WELL MASS FLUX" ON UNIT 145 AT TIME STEP      5, STRESS PERIOD     20

 TRANSPORT SOLUTION COMPLETE FOR ALL SPECIES, SORTING OUTPUT FOR CONCENTRATIONS AND MASS BALANCE
 ----------------------------------------------------------------------------------------------------
     TRANSPORT OUTPUT FOR COMPONENT SPECIES NUMBER    1
     ------------------------------------------------------------

 CONC WILL BE SAVED ON UNIT  132 AT END OF TIME STEP        5, STRESS PERIOD       20

 CLN CONC WILL BE SAVED ON UNIT  188 AT END OF TIME STEP   5, STRESS PERIOD   20
1
  VOLUMETRIC BUDGET FOR ENTIRE MODEL AT END OF TIME STEP       5 IN STRESS PERIOD      20
  ---------------------------------------------------------------------------------------

     CUMULATIVE VOLUMES      L**3       RATES FOR THIS TIME STEP      L**3/T
     ------------------                 ------------------------

           IN:                                      IN:
           ---                                      ---
        MASS STORAGE =         289.3001          MASS STORAGE =           0.5000
    CNST H MASS FLUX =           0.0000      CNST H MASS FLUX =           0.0000
      WELL MASS FLUX =           0.0000        WELL MASS FLUX =           0.0000

            TOTAL IN =         289.3001              TOTAL IN =           0.5000

          OUT:                                     OUT:
          ----                                     ----
        MASS STORAGE =           0.2827          MASS STORAGE =       3.5972E-10
    CNST H MASS FLUX =           0.0000      CNST H MASS FLUX =           0.0000
      WELL MASS FLUX =         289.0173        WELL MASS FLUX =           0.5000

           TOTAL OUT =         289.3001             TOTAL OUT =           0.5000

            IN - OUT =       4.8004E-10              IN - OUT =      -3.5972E-10

 PERCENT DISCREPANCY =           0.00     PERCENT DISCREPANCY =          -0.00






          TIME SUMMARY AT END OF TIME STEP         5 IN STRESS PERIOD        20
                    SECONDS     MINUTES      HOURS       DAYS        YEARS
                    -----------------------------------------------------------
   TIME STEP LENGTH 2.07051E+05  3450.8      57.514      2.3964     6.56105E-03
 STRESS PERIOD TIME 7.43051E+05  12384.      206.40      8.6001     2.35459E-02
         TOTAL TIME 4.99910E+07 8.33184E+05  13886.      578.60      1.5841    
1
 -------------------------------------------------------------------------------------
 
 SOLVING FOR HEAD 

 Outer-Iteration  Inner-Iteration  Backtracking  Number of        Incoming       Outgoing  Maximum HeadChange      Maximum Head Change
     Number           Count           Flag       Backtracks       Residual       Residual           Value              Location
        1                             0             0          0.342457E-01     0.342457E-01
        1                6                                                                       -0.121938                   400           GWF-node number
        1                6                                                                       -0.116051                     3           CLN-node number
        2                             0             0          0.243160E-06     0.243160E-06
        2                1                                                                        0.220241E-07               190           GWF-node number
        2                1                                                                        0.603390E-07                 1           CLN-node number
     2 CALLS TO SPARSE MATRIX SOLVER PACKAGE  IN FLOW TIME STEP       6 STRESS PERIOD      20

 TOTAL OF       2OUTER ITERATIONS
  MAXIMUM CHANGE FOR EACH ITERATION:
   MAX. CHANGE        NODE  MAX. CHANGE        NODE  MAX. CHANGE        NODE  MAX. CHANGE        NODE  MAX. CHANGE        NODE
 ------------------------------------------------------------------------------------------------------------------------------------
  -0.12194    ,        400  0.22024E-07,        190

  MAXIMUM CHANGE FOR CLN NODE AT EACH ITERATION:
   MAX. CHANGE    CLN-CELL  MAX. CHANGE    CLN-CELL  MAX. CHANGE    CLN-CELL  MAX. CHANGE    CLN-CELL  MAX. CHANGE    CLN-CELL
 ------------------------------------------------------------------------------------------------------------------------------------
  -0.11605    ,          3  0.60339E-07,          1

 HEAD/DRAWDOWN PRINTOUT FLAG = 1     TOTAL BUDGET PRINTOUT FLAG = 1
 CELL-BY-CELL FLOW TERM FLAG = 1
 CONCENTRATION PRINTOUT FLAG = 1

 OUTPUT FLAGS FOR ALL LAYERS ARE THE SAME:
   HEAD    DRAWDOWN  HEAD  DRAWDOWN    CONC    CONC
 PRINTOUT  PRINTOUT  SAVE    SAVE    PRINTOUT  SAVE
 ---------------------------------------------------
     0         0       1       1       0       1
 UBUDSVU SAVING "         STORAGE" ON UNIT  50 AT TIME STEP      6, STRESS PERIOD     20
 UBUDSV SAVING "     CLN STORAGE" ON UNIT 144 AT TIME STEP      6, STRESS PERIOD      20
 UBUDSVU SAVING "   CONSTANT HEAD" ON UNIT  50 AT TIME STEP      6, STRESS PERIOD     20
 UBUDSVU SAVING "   FLOW JA FACE " ON UNIT  50 AT TIME STEP      6, STRESS PERIOD     20
 UBUDSVU SAVING "             CLN" ON UNIT  50 AT TIME STEP      6, STRESS PERIOD     20
 UBUDSVU SAVING "  CLN CONST HEAD" ON UNIT 144 AT TIME STEP      6, STRESS PERIOD     20
 UBUDSVU SAVING "   FLOW CLN FACE" ON UNIT 144 AT TIME STEP      6, STRESS PERIOD     20
 UBUDSVU SAVING "             GWF" ON UNIT 144 AT TIME STEP      6, STRESS PERIOD     20
 UBUDSVU SAVING "           WELLS" ON UNIT  50 AT TIME STEP      6, STRESS PERIOD     20
 UBUDSVU SAVING "           WELLS" ON UNIT 144 AT TIME STEP      6, STRESS PERIOD     20

 HEAD WILL BE SAVED ON UNIT       30 AT END OF TIME STEP        6, STRESS PERIOD       20

 DRAWDOWN WILL BE SAVED ON UNIT   31 AT END OF TIME STEP   6, STRESS PERIOD   20

 CLN HEAD WILL BE SAVED ON UNIT   77 AT END OF TIME STEP   6, STRESS PERIOD   20
1
  VOLUMETRIC BUDGET FOR ENTIRE MODEL AT END OF TIME STEP       6 IN STRESS PERIOD      20
  ---------------------------------------------------------------------------------------

     CUMULATIVE VOLUMES      L**3       RATES FOR THIS TIME STEP      L**3/T
     ------------------                 ------------------------

           IN:                                      IN:
           ---                                      ---
             STORAGE =        2906.8418               STORAGE =           4.9971
         CLN STORAGE =           0.5373           CLN STORAGE =       2.8526E-03
       CONSTANT HEAD =           0.0000         CONSTANT HEAD =           0.0000
      CLN CONST HEAD =           0.0000        CLN CONST HEAD =           0.0000
               WELLS =           0.0000                 WELLS =           0.0000

            TOTAL IN =        2907.3791              TOTAL IN =           5.0000

          OUT:                                     OUT:
          ----                                     ----
             STORAGE =           0.0000               STORAGE =           0.0000
         CLN STORAGE =           0.0000           CLN STORAGE =           0.0000
       CONSTANT HEAD =           0.0000         CONSTANT HEAD =           0.0000
      CLN CONST HEAD =           0.0000        CLN CONST HEAD =           0.0000
               WELLS =        2907.3791                 WELLS =           5.0000

           TOTAL OUT =        2907.3791             TOTAL OUT =           5.0000

            IN - OUT =       2.2774E-05              IN - OUT =       3.4938E-08

 PERCENT DISCREPANCY =           0.00     PERCENT DISCREPANCY =           0.00






          TIME SUMMARY AT END OF TIME STEP         6 IN STRESS PERIOD        20
                    SECONDS     MINUTES      HOURS       DAYS        YEARS
                    -----------------------------------------------------------
   TIME STEP LENGTH 2.48461E+05  4141.0      69.017      2.8757     7.87326E-03
 STRESS PERIOD TIME 9.91512E+05  16525.      275.42      11.476     3.14191E-02
         TOTAL TIME 5.02395E+07 8.37325E+05  13955.      581.48      1.5920    
1
 ------------------------------------------------------------------------------------------------------------
 
 SOLVING FOR TRANSPORT 

 ------------------------------------------------------------------------------------------------------------------------
     1 CALLS TO SPARSE MATRIX SOLVER PACKAGE IN TRANSPORT TIME STEP       6 STRESS PERIOD      20 SPECIES  1

 TOTAL OF       1OUTER ITERATIONS
  MAXIMUM CHANGE FOR EACH ITERATION:
   MAX. CHANGE        NODE  MAX. CHANGE        NODE  MAX. CHANGE        NODE  MAX. CHANGE        NODE  MAX. CHANGE        NODE
 ------------------------------------------------------------------------------------------------------------------------------------
  -0.15912E-11,        191

  MAXIMUM CHANGE FOR CLN NODE AT EACH ITERATION:
   MAX. CHANGE    CLN-CELL  MAX. CHANGE    CLN-CELL  MAX. CHANGE    CLN-CELL  MAX. CHANGE    CLN-CELL  MAX. CHANGE    CLN-CELL
 ------------------------------------------------------------------------------------------------------------------------------------
   0.42434E-09,          2
     TRANSPORT SOLUTION COMPLETE FOR COMPONENT SPECIES NUMBER    1
     ------------------------------------------------------------
 UBUDSVU SAVING "    MASS STORAGE" ON UNIT 145 AT TIME STEP      6, STRESS PERIOD     20
 UBUDSVU SAVING "CLN MASS STORAGE" ON UNIT 145 AT TIME STEP      6, STRESS PERIOD     20
 UBUDSVU SAVING "CNST H MASS FLUX" ON UNIT 145 AT TIME STEP      6, STRESS PERIOD     20
 UBUDSVU SAVING "  WELL MASS FLUX" ON UNIT 145 AT TIME STEP      6, STRESS PERIOD     20

 TRANSPORT SOLUTION COMPLETE FOR ALL SPECIES, SORTING OUTPUT FOR CONCENTRATIONS AND MASS BALANCE
 ----------------------------------------------------------------------------------------------------
     TRANSPORT OUTPUT FOR COMPONENT SPECIES NUMBER    1
     ------------------------------------------------------------

 CONC WILL BE SAVED ON UNIT  132 AT END OF TIME STEP        6, STRESS PERIOD       20

 CLN CONC WILL BE SAVED ON UNIT  188 AT END OF TIME STEP   6, STRESS PERIOD   20
1
  VOLUMETRIC BUDGET FOR ENTIRE MODEL AT END OF TIME STEP       6 IN STRESS PERIOD      20
  ---------------------------------------------------------------------------------------

     CUMULATIVE VOLUMES      L**3       RATES FOR THIS TIME STEP      L**3/T
     ------------------                 ------------------------

           IN:                                      IN:
           ---                                      ---
        MASS STORAGE =         290.7379          MASS STORAGE =           0.5000
    CNST H MASS FLUX =           0.0000      CNST H MASS FLUX =           0.0000
      WELL MASS FLUX =           0.0000        WELL MASS FLUX =           0.0000

            TOTAL IN =         290.7379              TOTAL IN =           0.5000

          OUT:                                     OUT:
          ----                                     ----
        MASS STORAGE =           0.2827          MASS STORAGE =       1.1730E-10
    CNST H MASS FLUX =           0.0000      CNST H MASS FLUX =           0.0000
      WELL MASS FLUX =         290.4552        WELL MASS FLUX =           0.5000

           TOTAL OUT =         290.7379             TOTAL OUT =           0.5000

            IN - OUT =       4.7976E-10              IN - OUT =      -1.1730E-10

 PERCENT DISCREPANCY =           0.00     PERCENT DISCREPANCY =          -0.00






          TIME SUMMARY AT END OF TIME STEP         6 IN STRESS PERIOD        20
                    SECONDS     MINUTES      HOURS       DAYS        YEARS
                    -----------------------------------------------------------
   TIME STEP LENGTH 2.48461E+05  4141.0      69.017      2.8757     7.87326E-03
 STRESS PERIOD TIME 9.91512E+05  16525.      275.42      11.476     3.14191E-02
         TOTAL TIME 5.02395E+07 8.37325E+05  13955.      581.48      1.5920    
1
 -------------------------------------------------------------------------------------
 
 SOLVING FOR HEAD 

 Outer-Iteration  Inner-Iteration  Backtracking  Number of        Incoming       Outgoing  Maximum HeadChange      Maximum Head Change
     Number           Count           Flag       Backtracks       Residual       Residual           Value              Location
        1                             0             0          0.342119E-01     0.342119E-01
        1                6                                                                       -0.146141                   400           GWF-node number
        1                6                                                                       -0.139110                     3           CLN-node number
        2                             0             0          0.521355E-06     0.521355E-06
        2                1                                                                        0.435753E-07               190           GWF-node number
        2                1                                                                        0.123317E-06                 1           CLN-node number
     2 CALLS TO SPARSE MATRIX SOLVER PACKAGE  IN FLOW TIME STEP       7 STRESS PERIOD      20

 TOTAL OF       2OUTER ITERATIONS
  MAXIMUM CHANGE FOR EACH ITERATION:
   MAX. CHANGE        NODE  MAX. CHANGE        NODE  MAX. CHANGE        NODE  MAX. CHANGE        NODE  MAX. CHANGE        NODE
 ------------------------------------------------------------------------------------------------------------------------------------
  -0.14614    ,        400  0.43575E-07,        190

  MAXIMUM CHANGE FOR CLN NODE AT EACH ITERATION:
   MAX. CHANGE    CLN-CELL  MAX. CHANGE    CLN-CELL  MAX. CHANGE    CLN-CELL  MAX. CHANGE    CLN-CELL  MAX. CHANGE    CLN-CELL
 ------------------------------------------------------------------------------------------------------------------------------------
  -0.13911    ,          3  0.12332E-06,          1

 HEAD/DRAWDOWN PRINTOUT FLAG = 1     TOTAL BUDGET PRINTOUT FLAG = 1
 CELL-BY-CELL FLOW TERM FLAG = 1
 CONCENTRATION PRINTOUT FLAG = 1

 OUTPUT FLAGS FOR ALL LAYERS ARE THE SAME:
   HEAD    DRAWDOWN  HEAD  DRAWDOWN    CONC    CONC
 PRINTOUT  PRINTOUT  SAVE    SAVE    PRINTOUT  SAVE
 ---------------------------------------------------
     0         0       1       1       0       1
 UBUDSVU SAVING "         STORAGE" ON UNIT  50 AT TIME STEP      7, STRESS PERIOD     20
 UBUDSV SAVING "     CLN STORAGE" ON UNIT 144 AT TIME STEP      7, STRESS PERIOD      20
 UBUDSVU SAVING "   CONSTANT HEAD" ON UNIT  50 AT TIME STEP      7, STRESS PERIOD     20
 UBUDSVU SAVING "   FLOW JA FACE " ON UNIT  50 AT TIME STEP      7, STRESS PERIOD     20
 UBUDSVU SAVING "             CLN" ON UNIT  50 AT TIME STEP      7, STRESS PERIOD     20
 UBUDSVU SAVING "  CLN CONST HEAD" ON UNIT 144 AT TIME STEP      7, STRESS PERIOD     20
 UBUDSVU SAVING "   FLOW CLN FACE" ON UNIT 144 AT TIME STEP      7, STRESS PERIOD     20
 UBUDSVU SAVING "             GWF" ON UNIT 144 AT TIME STEP      7, STRESS PERIOD     20
 UBUDSVU SAVING "           WELLS" ON UNIT  50 AT TIME STEP      7, STRESS PERIOD     20
 UBUDSVU SAVING "           WELLS" ON UNIT 144 AT TIME STEP      7, STRESS PERIOD     20

 HEAD WILL BE SAVED ON UNIT       30 AT END OF TIME STEP        7, STRESS PERIOD       20

 DRAWDOWN WILL BE SAVED ON UNIT   31 AT END OF TIME STEP   7, STRESS PERIOD   20

 CLN HEAD WILL BE SAVED ON UNIT   77 AT END OF TIME STEP   7, STRESS PERIOD   20
1
  VOLUMETRIC BUDGET FOR ENTIRE MODEL AT END OF TIME STEP       7 IN STRESS PERIOD      20
  ---------------------------------------------------------------------------------------

     CUMULATIVE VOLUMES      L**3       RATES FOR THIS TIME STEP      L**3/T
     ------------------                 ------------------------

           IN:                                      IN:
           ---                                      ---
             STORAGE =        2924.0863               STORAGE =           4.9972
         CLN STORAGE =           0.5471           CLN STORAGE =       2.8495E-03
       CONSTANT HEAD =           0.0000         CONSTANT HEAD =           0.0000
      CLN CONST HEAD =           0.0000        CLN CONST HEAD =           0.0000
               WELLS =           0.0000                 WELLS =           0.0000

            TOTAL IN =        2924.6333              TOTAL IN =           5.0000

          OUT:                                     OUT:
          ----                                     ----
             STORAGE =           0.0000               STORAGE =           0.0000
         CLN STORAGE =           0.0000           CLN STORAGE =           0.0000
       CONSTANT HEAD =           0.0000         CONSTANT HEAD =           0.0000
      CLN CONST HEAD =           0.0000        CLN CONST HEAD =           0.0000
               WELLS =        2924.6333                 WELLS =           5.0000

           TOTAL OUT =        2924.6333             TOTAL OUT =           5.0000

            IN - OUT =       2.2808E-05              IN - OUT =       9.8041E-09

 PERCENT DISCREPANCY =           0.00     PERCENT DISCREPANCY =           0.00






          TIME SUMMARY AT END OF TIME STEP         7 IN STRESS PERIOD        20
                    SECONDS     MINUTES      HOURS       DAYS        YEARS
                    -----------------------------------------------------------
   TIME STEP LENGTH 2.98153E+05  4969.2      82.820      3.4509     9.44791E-03
 STRESS PERIOD TIME 1.28967E+06  21494.      358.24      14.927     4.08670E-02
         TOTAL TIME 5.05377E+07 8.42294E+05  14038.      584.93      1.6014    
1
 ------------------------------------------------------------------------------------------------------------
 
 SOLVING FOR TRANSPORT 

 ------------------------------------------------------------------------------------------------------------------------
     1 CALLS TO SPARSE MATRIX SOLVER PACKAGE IN TRANSPORT TIME STEP       7 STRESS PERIOD      20 SPECIES  1

 TOTAL OF       1OUTER ITERATIONS
  MAXIMUM CHANGE FOR EACH ITERATION:
   MAX. CHANGE        NODE  MAX. CHANGE        NODE  MAX. CHANGE        NODE  MAX. CHANGE        NODE  MAX. CHANGE        NODE
 ------------------------------------------------------------------------------------------------------------------------------------
   0.71430E-11,        191

  MAXIMUM CHANGE FOR CLN NODE AT EACH ITERATION:
   MAX. CHANGE    CLN-CELL  MAX. CHANGE    CLN-CELL  MAX. CHANGE    CLN-CELL  MAX. CHANGE    CLN-CELL  MAX. CHANGE    CLN-CELL
 ------------------------------------------------------------------------------------------------------------------------------------
  -0.13379E-08,          2
     TRANSPORT SOLUTION COMPLETE FOR COMPONENT SPECIES NUMBER    1
     ------------------------------------------------------------
 UBUDSVU SAVING "    MASS STORAGE" ON UNIT 145 AT TIME STEP      7, STRESS PERIOD     20
 UBUDSVU SAVING "CLN MASS STORAGE" ON UNIT 145 AT TIME STEP      7, STRESS PERIOD     20
 UBUDSVU SAVING "CNST H MASS FLUX" ON UNIT 145 AT TIME STEP      7, STRESS PERIOD     20
 UBUDSVU SAVING "  WELL MASS FLUX" ON UNIT 145 AT TIME STEP      7, STRESS PERIOD     20

 TRANSPORT SOLUTION COMPLETE FOR ALL SPECIES, SORTING OUTPUT FOR CONCENTRATIONS AND MASS BALANCE
 ----------------------------------------------------------------------------------------------------
     TRANSPORT OUTPUT FOR COMPONENT SPECIES NUMBER    1
     ------------------------------------------------------------

 CONC WILL BE SAVED ON UNIT  132 AT END OF TIME STEP        7, STRESS PERIOD       20

 CLN CONC WILL BE SAVED ON UNIT  188 AT END OF TIME STEP   7, STRESS PERIOD   20
1
  VOLUMETRIC BUDGET FOR ENTIRE MODEL AT END OF TIME STEP       7 IN STRESS PERIOD      20
  ---------------------------------------------------------------------------------------

     CUMULATIVE VOLUMES      L**3       RATES FOR THIS TIME STEP      L**3/T
     ------------------                 ------------------------

           IN:                                      IN:
           ---                                      ---
        MASS STORAGE =         292.4633          MASS STORAGE =           0.5000
    CNST H MASS FLUX =           0.0000      CNST H MASS FLUX =           0.0000
      WELL MASS FLUX =           0.0000        WELL MASS FLUX =           0.0000

            TOTAL IN =         292.4633              TOTAL IN =           0.5000

          OUT:                                     OUT:
          ----                                     ----
        MASS STORAGE =           0.2827          MASS STORAGE =           0.0000
    CNST H MASS FLUX =           0.0000      CNST H MASS FLUX =           0.0000
      WELL MASS FLUX =         292.1806        WELL MASS FLUX =           0.5000

           TOTAL OUT =         292.4633             TOTAL OUT =           0.5000

            IN - OUT =       4.8328E-10              IN - OUT =           0.0000

 PERCENT DISCREPANCY =           0.00     PERCENT DISCREPANCY =           0.00






          TIME SUMMARY AT END OF TIME STEP         7 IN STRESS PERIOD        20
                    SECONDS     MINUTES      HOURS       DAYS        YEARS
                    -----------------------------------------------------------
   TIME STEP LENGTH 2.98153E+05  4969.2      82.820      3.4509     9.44791E-03
 STRESS PERIOD TIME 1.28967E+06  21494.      358.24      14.927     4.08670E-02
         TOTAL TIME 5.05377E+07 8.42294E+05  14038.      584.93      1.6014    
1
 -------------------------------------------------------------------------------------
 
 SOLVING FOR HEAD 

 Outer-Iteration  Inner-Iteration  Backtracking  Number of        Incoming       Outgoing  Maximum HeadChange      Maximum Head Change
     Number           Count           Flag       Backtracks       Residual       Residual           Value              Location
        1                             0             0          0.341716E-01     0.341716E-01
        1                6                                                                       -0.175105                   400           GWF-node number
        1                6                                                                       -0.166716                     3           CLN-node number
        2                             0             0          0.112543E-05     0.112543E-05
        2                1                                                                        0.116252E-06               416           GWF-node number
        2                1                                                                        0.114687E-06                 1           CLN-node number
     2 CALLS TO SPARSE MATRIX SOLVER PACKAGE  IN FLOW TIME STEP       8 STRESS PERIOD      20

 TOTAL OF       2OUTER ITERATIONS
  MAXIMUM CHANGE FOR EACH ITERATION:
   MAX. CHANGE        NODE  MAX. CHANGE        NODE  MAX. CHANGE        NODE  MAX. CHANGE        NODE  MAX. CHANGE        NODE
 ------------------------------------------------------------------------------------------------------------------------------------
  -0.17510    ,        400  0.11625E-06,        416

  MAXIMUM CHANGE FOR CLN NODE AT EACH ITERATION:
   MAX. CHANGE    CLN-CELL  MAX. CHANGE    CLN-CELL  MAX. CHANGE    CLN-CELL  MAX. CHANGE    CLN-CELL  MAX. CHANGE    CLN-CELL
 ------------------------------------------------------------------------------------------------------------------------------------
  -0.16672    ,          3  0.11469E-06,          1

 HEAD/DRAWDOWN PRINTOUT FLAG = 1     TOTAL BUDGET PRINTOUT FLAG = 1
 CELL-BY-CELL FLOW TERM FLAG = 1
 CONCENTRATION PRINTOUT FLAG = 1

 OUTPUT FLAGS FOR ALL LAYERS ARE THE SAME:
   HEAD    DRAWDOWN  HEAD  DRAWDOWN    CONC    CONC
 PRINTOUT  PRINTOUT  SAVE    SAVE    PRINTOUT  SAVE
 ---------------------------------------------------
     0         0       1       1       0       1
 UBUDSVU SAVING "         STORAGE" ON UNIT  50 AT TIME STEP      8, STRESS PERIOD     20
 UBUDSV SAVING "     CLN STORAGE" ON UNIT 144 AT TIME STEP      8, STRESS PERIOD      20
 UBUDSVU SAVING "   CONSTANT HEAD" ON UNIT  50 AT TIME STEP      8, STRESS PERIOD     20
 UBUDSVU SAVING "   FLOW JA FACE " ON UNIT  50 AT TIME STEP      8, STRESS PERIOD     20
 UBUDSVU SAVING "             CLN" ON UNIT  50 AT TIME STEP      8, STRESS PERIOD     20
 UBUDSVU SAVING "  CLN CONST HEAD" ON UNIT 144 AT TIME STEP      8, STRESS PERIOD     20
 UBUDSVU SAVING "   FLOW CLN FACE" ON UNIT 144 AT TIME STEP      8, STRESS PERIOD     20
 UBUDSVU SAVING "             GWF" ON UNIT 144 AT TIME STEP      8, STRESS PERIOD     20
 UBUDSVU SAVING "           WELLS" ON UNIT  50 AT TIME STEP      8, STRESS PERIOD     20
 UBUDSVU SAVING "           WELLS" ON UNIT 144 AT TIME STEP      8, STRESS PERIOD     20

 HEAD WILL BE SAVED ON UNIT       30 AT END OF TIME STEP        8, STRESS PERIOD       20

 DRAWDOWN WILL BE SAVED ON UNIT   31 AT END OF TIME STEP   8, STRESS PERIOD   20

 CLN HEAD WILL BE SAVED ON UNIT   77 AT END OF TIME STEP   8, STRESS PERIOD   20
1
  VOLUMETRIC BUDGET FOR ENTIRE MODEL AT END OF TIME STEP       8 IN STRESS PERIOD      20
  ---------------------------------------------------------------------------------------

     CUMULATIVE VOLUMES      L**3       RATES FOR THIS TIME STEP      L**3/T
     ------------------                 ------------------------

           IN:                                      IN:
           ---                                      ---
             STORAGE =        2944.7796               STORAGE =           4.9972
         CLN STORAGE =           0.5589           CLN STORAGE =       2.8458E-03
       CONSTANT HEAD =           0.0000         CONSTANT HEAD =           0.0000
      CLN CONST HEAD =           0.0000        CLN CONST HEAD =           0.0000
               WELLS =           0.0000                 WELLS =           0.0000

            TOTAL IN =        2945.3384              TOTAL IN =           5.0000

          OUT:                                     OUT:
          ----                                     ----
             STORAGE =           0.0000               STORAGE =           0.0000
         CLN STORAGE =           0.0000           CLN STORAGE =           0.0000
       CONSTANT HEAD =           0.0000         CONSTANT HEAD =           0.0000
      CLN CONST HEAD =           0.0000        CLN CONST HEAD =           0.0000
               WELLS =        2945.3384                 WELLS =           5.0000

           TOTAL OUT =        2945.3384             TOTAL OUT =           5.0000

            IN - OUT =       2.2893E-05              IN - OUT =       2.0642E-08

 PERCENT DISCREPANCY =           0.00     PERCENT DISCREPANCY =           0.00






          TIME SUMMARY AT END OF TIME STEP         8 IN STRESS PERIOD        20
                    SECONDS     MINUTES      HOURS       DAYS        YEARS
                    -----------------------------------------------------------
   TIME STEP LENGTH 3.57784E+05  5963.1      99.384      4.1410     1.13375E-02
 STRESS PERIOD TIME 1.64745E+06  27457.      457.62      19.068     5.22045E-02
         TOTAL TIME 5.08954E+07 8.48257E+05  14138.      589.07      1.6128    
1
 ------------------------------------------------------------------------------------------------------------
 
 SOLVING FOR TRANSPORT 

 ------------------------------------------------------------------------------------------------------------------------
     1 CALLS TO SPARSE MATRIX SOLVER PACKAGE IN TRANSPORT TIME STEP       8 STRESS PERIOD      20 SPECIES  1

 TOTAL OF       1OUTER ITERATIONS
  MAXIMUM CHANGE FOR EACH ITERATION:
   MAX. CHANGE        NODE  MAX. CHANGE        NODE  MAX. CHANGE        NODE  MAX. CHANGE        NODE  MAX. CHANGE        NODE
 ------------------------------------------------------------------------------------------------------------------------------------
   0.67729E-11,        191

  MAXIMUM CHANGE FOR CLN NODE AT EACH ITERATION:
   MAX. CHANGE    CLN-CELL  MAX. CHANGE    CLN-CELL  MAX. CHANGE    CLN-CELL  MAX. CHANGE    CLN-CELL  MAX. CHANGE    CLN-CELL
 ------------------------------------------------------------------------------------------------------------------------------------
  -0.48271E-09,          2
     TRANSPORT SOLUTION COMPLETE FOR COMPONENT SPECIES NUMBER    1
     ------------------------------------------------------------
 UBUDSVU SAVING "    MASS STORAGE" ON UNIT 145 AT TIME STEP      8, STRESS PERIOD     20
 UBUDSVU SAVING "CLN MASS STORAGE" ON UNIT 145 AT TIME STEP      8, STRESS PERIOD     20
 UBUDSVU SAVING "CNST H MASS FLUX" ON UNIT 145 AT TIME STEP      8, STRESS PERIOD     20
 UBUDSVU SAVING "  WELL MASS FLUX" ON UNIT 145 AT TIME STEP      8, STRESS PERIOD     20

 TRANSPORT SOLUTION COMPLETE FOR ALL SPECIES, SORTING OUTPUT FOR CONCENTRATIONS AND MASS BALANCE
 ----------------------------------------------------------------------------------------------------
     TRANSPORT OUTPUT FOR COMPONENT SPECIES NUMBER    1
     ------------------------------------------------------------

 CONC WILL BE SAVED ON UNIT  132 AT END OF TIME STEP        8, STRESS PERIOD       20

 CLN CONC WILL BE SAVED ON UNIT  188 AT END OF TIME STEP   8, STRESS PERIOD   20
1
  VOLUMETRIC BUDGET FOR ENTIRE MODEL AT END OF TIME STEP       8 IN STRESS PERIOD      20
  ---------------------------------------------------------------------------------------

     CUMULATIVE VOLUMES      L**3       RATES FOR THIS TIME STEP      L**3/T
     ------------------                 ------------------------

           IN:                                      IN:
           ---                                      ---
        MASS STORAGE =         294.5339          MASS STORAGE =           0.5000
    CNST H MASS FLUX =           0.0000      CNST H MASS FLUX =           0.0000
      WELL MASS FLUX =           0.0000        WELL MASS FLUX =           0.0000

            TOTAL IN =         294.5339              TOTAL IN =           0.5000

          OUT:                                     OUT:
          ----                                     ----
        MASS STORAGE =           0.2827          MASS STORAGE =       1.3395E-10
    CNST H MASS FLUX =           0.0000      CNST H MASS FLUX =           0.0000
      WELL MASS FLUX =         294.2511        WELL MASS FLUX =           0.5000

           TOTAL OUT =         294.5339             TOTAL OUT =           0.5000

            IN - OUT =       4.8760E-10              IN - OUT =      -1.3395E-10

 PERCENT DISCREPANCY =           0.00     PERCENT DISCREPANCY =          -0.00






          TIME SUMMARY AT END OF TIME STEP         8 IN STRESS PERIOD        20
                    SECONDS     MINUTES      HOURS       DAYS        YEARS
                    -----------------------------------------------------------
   TIME STEP LENGTH 3.57784E+05  5963.1      99.384      4.1410     1.13375E-02
 STRESS PERIOD TIME 1.64745E+06  27457.      457.62      19.068     5.22045E-02
         TOTAL TIME 5.08954E+07 8.48257E+05  14138.      589.07      1.6128    
1
 -------------------------------------------------------------------------------------
 
 SOLVING FOR HEAD 

 Outer-Iteration  Inner-Iteration  Backtracking  Number of        Incoming       Outgoing  Maximum HeadChange      Maximum Head Change
     Number           Count           Flag       Backtracks       Residual       Residual           Value              Location
        1                             0             0          0.341238E-01     0.341238E-01
        1                6                                                                       -0.209747                   400           GWF-node number
        1                6                                                                       -0.199750                     2           CLN-node number
        2                             0             0          0.245068E-05     0.245068E-05
        2                1                                                                       -0.322422E-06               650           GWF-node number
        2                1                                                                        0.485407E-06                 1           CLN-node number
     2 CALLS TO SPARSE MATRIX SOLVER PACKAGE  IN FLOW TIME STEP       9 STRESS PERIOD      20

 TOTAL OF       2OUTER ITERATIONS
  MAXIMUM CHANGE FOR EACH ITERATION:
   MAX. CHANGE        NODE  MAX. CHANGE        NODE  MAX. CHANGE        NODE  MAX. CHANGE        NODE  MAX. CHANGE        NODE
 ------------------------------------------------------------------------------------------------------------------------------------
  -0.20975    ,        400 -0.32242E-06,        650

  MAXIMUM CHANGE FOR CLN NODE AT EACH ITERATION:
   MAX. CHANGE    CLN-CELL  MAX. CHANGE    CLN-CELL  MAX. CHANGE    CLN-CELL  MAX. CHANGE    CLN-CELL  MAX. CHANGE    CLN-CELL
 ------------------------------------------------------------------------------------------------------------------------------------
  -0.19975    ,          2  0.48541E-06,          1

 HEAD/DRAWDOWN PRINTOUT FLAG = 1     TOTAL BUDGET PRINTOUT FLAG = 1
 CELL-BY-CELL FLOW TERM FLAG = 1
 CONCENTRATION PRINTOUT FLAG = 1

 OUTPUT FLAGS FOR ALL LAYERS ARE THE SAME:
   HEAD    DRAWDOWN  HEAD  DRAWDOWN    CONC    CONC
 PRINTOUT  PRINTOUT  SAVE    SAVE    PRINTOUT  SAVE
 ---------------------------------------------------
     0         0       1       1       0       1
 UBUDSVU SAVING "         STORAGE" ON UNIT  50 AT TIME STEP      9, STRESS PERIOD     20
 UBUDSV SAVING "     CLN STORAGE" ON UNIT 144 AT TIME STEP      9, STRESS PERIOD      20
 UBUDSVU SAVING "   CONSTANT HEAD" ON UNIT  50 AT TIME STEP      9, STRESS PERIOD     20
 UBUDSVU SAVING "   FLOW JA FACE " ON UNIT  50 AT TIME STEP      9, STRESS PERIOD     20
 UBUDSVU SAVING "             CLN" ON UNIT  50 AT TIME STEP      9, STRESS PERIOD     20
 UBUDSVU SAVING "  CLN CONST HEAD" ON UNIT 144 AT TIME STEP      9, STRESS PERIOD     20
 UBUDSVU SAVING "   FLOW CLN FACE" ON UNIT 144 AT TIME STEP      9, STRESS PERIOD     20
 UBUDSVU SAVING "             GWF" ON UNIT 144 AT TIME STEP      9, STRESS PERIOD     20
 UBUDSVU SAVING "           WELLS" ON UNIT  50 AT TIME STEP      9, STRESS PERIOD     20
 UBUDSVU SAVING "           WELLS" ON UNIT 144 AT TIME STEP      9, STRESS PERIOD     20

 HEAD WILL BE SAVED ON UNIT       30 AT END OF TIME STEP        9, STRESS PERIOD       20

 DRAWDOWN WILL BE SAVED ON UNIT   31 AT END OF TIME STEP   9, STRESS PERIOD   20

 CLN HEAD WILL BE SAVED ON UNIT   77 AT END OF TIME STEP   9, STRESS PERIOD   20
1
  VOLUMETRIC BUDGET FOR ENTIRE MODEL AT END OF TIME STEP       9 IN STRESS PERIOD      20
  ---------------------------------------------------------------------------------------

     CUMULATIVE VOLUMES      L**3       RATES FOR THIS TIME STEP      L**3/T
     ------------------                 ------------------------

           IN:                                      IN:
           ---                                      ---
             STORAGE =        2969.6116               STORAGE =           4.9972
         CLN STORAGE =           0.5730           CLN STORAGE =       2.8414E-03
       CONSTANT HEAD =           0.0000         CONSTANT HEAD =           0.0000
      CLN CONST HEAD =           0.0000        CLN CONST HEAD =           0.0000
               WELLS =           0.0000                 WELLS =           0.0000

            TOTAL IN =        2970.1846              TOTAL IN =           5.0000

          OUT:                                     OUT:
          ----                                     ----
             STORAGE =           0.0000               STORAGE =           0.0000
         CLN STORAGE =           0.0000           CLN STORAGE =           0.0000
       CONSTANT HEAD =           0.0000         CONSTANT HEAD =           0.0000
      CLN CONST HEAD =           0.0000        CLN CONST HEAD =           0.0000
               WELLS =        2970.1845                 WELLS =           5.0000

           TOTAL OUT =        2970.1845             TOTAL OUT =           5.0000

            IN - OUT =       2.2903E-05              IN - OUT =       1.9148E-09

 PERCENT DISCREPANCY =           0.00     PERCENT DISCREPANCY =           0.00






          TIME SUMMARY AT END OF TIME STEP         9 IN STRESS PERIOD        20
                    SECONDS     MINUTES      HOURS       DAYS        YEARS
                    -----------------------------------------------------------
   TIME STEP LENGTH 4.29341E+05  7155.7      119.26      4.9692     1.36050E-02
 STRESS PERIOD TIME 2.07679E+06  34613.      576.89      24.037     6.58095E-02
         TOTAL TIME 5.13248E+07 8.55413E+05  14257.      594.04      1.6264    
1
 ------------------------------------------------------------------------------------------------------------
 
 SOLVING FOR TRANSPORT 

 ------------------------------------------------------------------------------------------------------------------------
     1 CALLS TO SPARSE MATRIX SOLVER PACKAGE IN TRANSPORT TIME STEP       9 STRESS PERIOD      20 SPECIES  1

 TOTAL OF       1OUTER ITERATIONS
  MAXIMUM CHANGE FOR EACH ITERATION:
   MAX. CHANGE        NODE  MAX. CHANGE        NODE  MAX. CHANGE        NODE  MAX. CHANGE        NODE  MAX. CHANGE        NODE
 ------------------------------------------------------------------------------------------------------------------------------------
   0.84470E-10,        191

  MAXIMUM CHANGE FOR CLN NODE AT EACH ITERATION:
   MAX. CHANGE    CLN-CELL  MAX. CHANGE    CLN-CELL  MAX. CHANGE    CLN-CELL  MAX. CHANGE    CLN-CELL  MAX. CHANGE    CLN-CELL
 ------------------------------------------------------------------------------------------------------------------------------------
   0.26461E-08,          1
     TRANSPORT SOLUTION COMPLETE FOR COMPONENT SPECIES NUMBER    1
     ------------------------------------------------------------
 UBUDSVU SAVING "    MASS STORAGE" ON UNIT 145 AT TIME STEP      9, STRESS PERIOD     20
 UBUDSVU SAVING "CLN MASS STORAGE" ON UNIT 145 AT TIME STEP      9, STRESS PERIOD     20
 UBUDSVU SAVING "CNST H MASS FLUX" ON UNIT 145 AT TIME STEP      9, STRESS PERIOD     20
 UBUDSVU SAVING "  WELL MASS FLUX" ON UNIT 145 AT TIME STEP      9, STRESS PERIOD     20

 TRANSPORT SOLUTION COMPLETE FOR ALL SPECIES, SORTING OUTPUT FOR CONCENTRATIONS AND MASS BALANCE
 ----------------------------------------------------------------------------------------------------
     TRANSPORT OUTPUT FOR COMPONENT SPECIES NUMBER    1
     ------------------------------------------------------------

 CONC WILL BE SAVED ON UNIT  132 AT END OF TIME STEP        9, STRESS PERIOD       20

 CLN CONC WILL BE SAVED ON UNIT  188 AT END OF TIME STEP   9, STRESS PERIOD   20
1
  VOLUMETRIC BUDGET FOR ENTIRE MODEL AT END OF TIME STEP       9 IN STRESS PERIOD      20
  ---------------------------------------------------------------------------------------

     CUMULATIVE VOLUMES      L**3       RATES FOR THIS TIME STEP      L**3/T
     ------------------                 ------------------------

           IN:                                      IN:
           ---                                      ---
        MASS STORAGE =         297.0185          MASS STORAGE =           0.5000
    CNST H MASS FLUX =           0.0000      CNST H MASS FLUX =           0.0000
      WELL MASS FLUX =           0.0000        WELL MASS FLUX =           0.0000

            TOTAL IN =         297.0185              TOTAL IN =           0.5000

          OUT:                                     OUT:
          ----                                     ----
        MASS STORAGE =           0.2827          MASS STORAGE =           0.0000
    CNST H MASS FLUX =           0.0000      CNST H MASS FLUX =           0.0000
      WELL MASS FLUX =         296.7357        WELL MASS FLUX =           0.5000

           TOTAL OUT =         297.0185             TOTAL OUT =           0.5000

            IN - OUT =       5.6684E-10              IN - OUT =           0.0000

 PERCENT DISCREPANCY =           0.00     PERCENT DISCREPANCY =           0.00






          TIME SUMMARY AT END OF TIME STEP         9 IN STRESS PERIOD        20
                    SECONDS     MINUTES      HOURS       DAYS        YEARS
                    -----------------------------------------------------------
   TIME STEP LENGTH 4.29341E+05  7155.7      119.26      4.9692     1.36050E-02
 STRESS PERIOD TIME 2.07679E+06  34613.      576.89      24.037     6.58095E-02
         TOTAL TIME 5.13248E+07 8.55413E+05  14257.      594.04      1.6264    
1
 -------------------------------------------------------------------------------------
 
 SOLVING FOR HEAD 

 Outer-Iteration  Inner-Iteration  Backtracking  Number of        Incoming       Outgoing  Maximum HeadChange      Maximum Head Change
     Number           Count           Flag       Backtracks       Residual       Residual           Value              Location
        1                             0             0          0.340672E-01     0.340672E-01
        1                7                                                                       -0.251157                   400           GWF-node number
        1                7                                                                       -0.239258                     3           CLN-node number
        2                             0             0          0.539372E-05     0.539372E-05
        2                1                                                                       -0.519299E-07               417           GWF-node number
        2                1                                                                       -0.934758E-07                 3           CLN-node number
     2 CALLS TO SPARSE MATRIX SOLVER PACKAGE  IN FLOW TIME STEP      10 STRESS PERIOD      20

 TOTAL OF       2OUTER ITERATIONS
  MAXIMUM CHANGE FOR EACH ITERATION:
   MAX. CHANGE        NODE  MAX. CHANGE        NODE  MAX. CHANGE        NODE  MAX. CHANGE        NODE  MAX. CHANGE        NODE
 ------------------------------------------------------------------------------------------------------------------------------------
  -0.25116    ,        400 -0.51930E-07,        417

  MAXIMUM CHANGE FOR CLN NODE AT EACH ITERATION:
   MAX. CHANGE    CLN-CELL  MAX. CHANGE    CLN-CELL  MAX. CHANGE    CLN-CELL  MAX. CHANGE    CLN-CELL  MAX. CHANGE    CLN-CELL
 ------------------------------------------------------------------------------------------------------------------------------------
  -0.23926    ,          3 -0.93476E-07,          3

 HEAD/DRAWDOWN PRINTOUT FLAG = 1     TOTAL BUDGET PRINTOUT FLAG = 1
 CELL-BY-CELL FLOW TERM FLAG = 1
 CONCENTRATION PRINTOUT FLAG = 1

 OUTPUT FLAGS FOR ALL LAYERS ARE THE SAME:
   HEAD    DRAWDOWN  HEAD  DRAWDOWN    CONC    CONC
 PRINTOUT  PRINTOUT  SAVE    SAVE    PRINTOUT  SAVE
 ---------------------------------------------------
     0         0       1       1       0       1
 UBUDSVU SAVING "         STORAGE" ON UNIT  50 AT TIME STEP     10, STRESS PERIOD     20
 UBUDSV SAVING "     CLN STORAGE" ON UNIT 144 AT TIME STEP     10, STRESS PERIOD      20
 UBUDSVU SAVING "   CONSTANT HEAD" ON UNIT  50 AT TIME STEP     10, STRESS PERIOD     20
 UBUDSVU SAVING "   FLOW JA FACE " ON UNIT  50 AT TIME STEP     10, STRESS PERIOD     20
 UBUDSVU SAVING "             CLN" ON UNIT  50 AT TIME STEP     10, STRESS PERIOD     20
 UBUDSVU SAVING "  CLN CONST HEAD" ON UNIT 144 AT TIME STEP     10, STRESS PERIOD     20
 UBUDSVU SAVING "   FLOW CLN FACE" ON UNIT 144 AT TIME STEP     10, STRESS PERIOD     20
 UBUDSVU SAVING "             GWF" ON UNIT 144 AT TIME STEP     10, STRESS PERIOD     20
 UBUDSVU SAVING "           WELLS" ON UNIT  50 AT TIME STEP     10, STRESS PERIOD     20
 UBUDSVU SAVING "           WELLS" ON UNIT 144 AT TIME STEP     10, STRESS PERIOD     20

 HEAD WILL BE SAVED ON UNIT       30 AT END OF TIME STEP       10, STRESS PERIOD       20

 DRAWDOWN WILL BE SAVED ON UNIT   31 AT END OF TIME STEP  10, STRESS PERIOD   20

 CLN HEAD WILL BE SAVED ON UNIT   77 AT END OF TIME STEP  10, STRESS PERIOD   20
1
  VOLUMETRIC BUDGET FOR ENTIRE MODEL AT END OF TIME STEP      10 IN STRESS PERIOD      20
  ---------------------------------------------------------------------------------------

     CUMULATIVE VOLUMES      L**3       RATES FOR THIS TIME STEP      L**3/T
     ------------------                 ------------------------

           IN:                                      IN:
           ---                                      ---
             STORAGE =        2999.4100               STORAGE =           4.9972
         CLN STORAGE =           0.5899           CLN STORAGE =       2.8362E-03
       CONSTANT HEAD =           0.0000         CONSTANT HEAD =           0.0000
      CLN CONST HEAD =           0.0000        CLN CONST HEAD =           0.0000
               WELLS =           0.0000                 WELLS =           0.0000

            TOTAL IN =        2999.9999              TOTAL IN =           5.0000

          OUT:                                     OUT:
          ----                                     ----
             STORAGE =           0.0000               STORAGE =           0.0000
         CLN STORAGE =           0.0000           CLN STORAGE =           0.0000
       CONSTANT HEAD =           0.0000         CONSTANT HEAD =           0.0000
      CLN CONST HEAD =           0.0000        CLN CONST HEAD =           0.0000
               WELLS =        2999.9999                 WELLS =           5.0000

           TOTAL OUT =        2999.9999             TOTAL OUT =           5.0000

            IN - OUT =       2.3001E-05              IN - OUT =       1.6444E-08

 PERCENT DISCREPANCY =           0.00     PERCENT DISCREPANCY =           0.00






          TIME SUMMARY AT END OF TIME STEP        10 IN STRESS PERIOD        20
                    SECONDS     MINUTES      HOURS       DAYS        YEARS
                    -----------------------------------------------------------
   TIME STEP LENGTH 5.15209E+05  8586.8      143.11      5.9631     1.63260E-02
 STRESS PERIOD TIME 2.59200E+06  43200.      720.00      30.000     8.21355E-02
         TOTAL TIME 5.18400E+07 8.64000E+05  14400.      600.00      1.6427    
1
 ------------------------------------------------------------------------------------------------------------
 
 SOLVING FOR TRANSPORT 

 ------------------------------------------------------------------------------------------------------------------------
     1 CALLS TO SPARSE MATRIX SOLVER PACKAGE IN TRANSPORT TIME STEP      10 STRESS PERIOD      20 SPECIES  1

 TOTAL OF       1OUTER ITERATIONS
  MAXIMUM CHANGE FOR EACH ITERATION:
   MAX. CHANGE        NODE  MAX. CHANGE        NODE  MAX. CHANGE        NODE  MAX. CHANGE        NODE  MAX. CHANGE        NODE
 ------------------------------------------------------------------------------------------------------------------------------------
  -0.43741E-10,        191

  MAXIMUM CHANGE FOR CLN NODE AT EACH ITERATION:
   MAX. CHANGE    CLN-CELL  MAX. CHANGE    CLN-CELL  MAX. CHANGE    CLN-CELL  MAX. CHANGE    CLN-CELL  MAX. CHANGE    CLN-CELL
 ------------------------------------------------------------------------------------------------------------------------------------
  -0.42371E-08,          1
     TRANSPORT SOLUTION COMPLETE FOR COMPONENT SPECIES NUMBER    1
     ------------------------------------------------------------
 UBUDSVU SAVING "    MASS STORAGE" ON UNIT 145 AT TIME STEP     10, STRESS PERIOD     20
 UBUDSVU SAVING "CLN MASS STORAGE" ON UNIT 145 AT TIME STEP     10, STRESS PERIOD     20
 UBUDSVU SAVING "CNST H MASS FLUX" ON UNIT 145 AT TIME STEP     10, STRESS PERIOD     20
 UBUDSVU SAVING "  WELL MASS FLUX" ON UNIT 145 AT TIME STEP     10, STRESS PERIOD     20

 TRANSPORT SOLUTION COMPLETE FOR ALL SPECIES, SORTING OUTPUT FOR CONCENTRATIONS AND MASS BALANCE
 ----------------------------------------------------------------------------------------------------
     TRANSPORT OUTPUT FOR COMPONENT SPECIES NUMBER    1
     ------------------------------------------------------------

 CONC WILL BE SAVED ON UNIT  132 AT END OF TIME STEP       10, STRESS PERIOD       20

 CLN CONC WILL BE SAVED ON UNIT  188 AT END OF TIME STEP  10, STRESS PERIOD   20
1
  VOLUMETRIC BUDGET FOR ENTIRE MODEL AT END OF TIME STEP      10 IN STRESS PERIOD      20
  ---------------------------------------------------------------------------------------

     CUMULATIVE VOLUMES      L**3       RATES FOR THIS TIME STEP      L**3/T
     ------------------                 ------------------------

           IN:                                      IN:
           ---                                      ---
        MASS STORAGE =         300.0000          MASS STORAGE =           0.5000
    CNST H MASS FLUX =           0.0000      CNST H MASS FLUX =           0.0000
      WELL MASS FLUX =           0.0000        WELL MASS FLUX =           0.0000

            TOTAL IN =         300.0000              TOTAL IN =           0.5000

          OUT:                                     OUT:
          ----                                     ----
        MASS STORAGE =           0.2827          MASS STORAGE =       4.6063E-10
    CNST H MASS FLUX =           0.0000      CNST H MASS FLUX =           0.0000
      WELL MASS FLUX =         299.7173        WELL MASS FLUX =           0.5000

           TOTAL OUT =         300.0000             TOTAL OUT =           0.5000

            IN - OUT =       5.0517E-10              IN - OUT =      -4.6063E-10

 PERCENT DISCREPANCY =           0.00     PERCENT DISCREPANCY =          -0.00






          TIME SUMMARY AT END OF TIME STEP        10 IN STRESS PERIOD        20
                    SECONDS     MINUTES      HOURS       DAYS        YEARS
                    -----------------------------------------------------------
   TIME STEP LENGTH 5.15209E+05  8586.8      143.11      5.9631     1.63260E-02
 STRESS PERIOD TIME 2.59200E+06  43200.      720.00      30.000     8.21355E-02
         TOTAL TIME 5.18400E+07 8.64000E+05  14400.      600.00      1.6427    
1

 Run end date and time (yyyy/mm/dd hh:mm:ss): 2021/01/02 18:54:13
 Elapsed run time:  1.141 Seconds

